* NGSPICE file created from mkLanaiFrontend.ext - technology: sky130A

* Black-box entry subcircuit for sky130_fd_sc_hd__tapvpwrvgnd_1 abstract view
.subckt sky130_fd_sc_hd__tapvpwrvgnd_1 VGND VPWR
.ends

* Black-box entry subcircuit for sky130_fd_sc_hd__decap_8 abstract view
.subckt sky130_fd_sc_hd__decap_8 VGND VNB VPB VPWR
.ends

* Black-box entry subcircuit for sky130_fd_sc_hd__decap_6 abstract view
.subckt sky130_fd_sc_hd__decap_6 VGND VNB VPB VPWR
.ends

* Black-box entry subcircuit for sky130_fd_sc_hd__a221o_1 abstract view
.subckt sky130_fd_sc_hd__a221o_1 A1 A2 B1 B2 C1 VGND VNB VPB VPWR X
.ends

* Black-box entry subcircuit for sky130_fd_sc_hd__o211ai_1 abstract view
.subckt sky130_fd_sc_hd__o211ai_1 A1 A2 B1 C1 VGND VNB VPB VPWR Y
.ends

* Black-box entry subcircuit for sky130_fd_sc_hd__nand3_1 abstract view
.subckt sky130_fd_sc_hd__nand3_1 A B C VGND VNB VPB VPWR Y
.ends

* Black-box entry subcircuit for sky130_fd_sc_hd__o21a_1 abstract view
.subckt sky130_fd_sc_hd__o21a_1 A1 A2 B1 VGND VNB VPB VPWR X
.ends

* Black-box entry subcircuit for sky130_fd_sc_hd__diode_2 abstract view
.subckt sky130_fd_sc_hd__diode_2 DIODE VGND VNB VPB VPWR
.ends

* Black-box entry subcircuit for sky130_fd_sc_hd__decap_12 abstract view
.subckt sky130_fd_sc_hd__decap_12 VGND VNB VPB VPWR
.ends

* Black-box entry subcircuit for sky130_fd_sc_hd__fill_1 abstract view
.subckt sky130_fd_sc_hd__fill_1 VGND VNB VPB VPWR
.ends

* Black-box entry subcircuit for sky130_fd_sc_hd__decap_4 abstract view
.subckt sky130_fd_sc_hd__decap_4 VGND VNB VPB VPWR
.ends

* Black-box entry subcircuit for sky130_fd_sc_hd__o21ai_1 abstract view
.subckt sky130_fd_sc_hd__o21ai_1 A1 A2 B1 VGND VNB VPB VPWR Y
.ends

* Black-box entry subcircuit for sky130_fd_sc_hd__fill_2 abstract view
.subckt sky130_fd_sc_hd__fill_2 VGND VNB VPB VPWR
.ends

* Black-box entry subcircuit for sky130_fd_sc_hd__clkbuf_16 abstract view
.subckt sky130_fd_sc_hd__clkbuf_16 A VGND VNB VPB VPWR X
.ends

* Black-box entry subcircuit for sky130_fd_sc_hd__buf_2 abstract view
.subckt sky130_fd_sc_hd__buf_2 A VGND VNB VPB VPWR X
.ends

* Black-box entry subcircuit for sky130_fd_sc_hd__nand2_1 abstract view
.subckt sky130_fd_sc_hd__nand2_1 A B VGND VNB VPB VPWR Y
.ends

* Black-box entry subcircuit for sky130_fd_sc_hd__buf_4 abstract view
.subckt sky130_fd_sc_hd__buf_4 A VGND VNB VPB VPWR X
.ends

* Black-box entry subcircuit for sky130_fd_sc_hd__inv_2 abstract view
.subckt sky130_fd_sc_hd__inv_2 A VGND VNB VPB VPWR Y
.ends

* Black-box entry subcircuit for sky130_fd_sc_hd__clkbuf_2 abstract view
.subckt sky130_fd_sc_hd__clkbuf_2 A VGND VNB VPB VPWR X
.ends

* Black-box entry subcircuit for sky130_fd_sc_hd__o21a_2 abstract view
.subckt sky130_fd_sc_hd__o21a_2 A1 A2 B1 VGND VNB VPB VPWR X
.ends

* Black-box entry subcircuit for sky130_fd_sc_hd__dfxtp_1 abstract view
.subckt sky130_fd_sc_hd__dfxtp_1 CLK D VGND VNB VPB VPWR Q
.ends

* Black-box entry subcircuit for sky130_fd_sc_hd__o211a_1 abstract view
.subckt sky130_fd_sc_hd__o211a_1 A1 A2 B1 C1 VGND VNB VPB VPWR X
.ends

* Black-box entry subcircuit for sky130_fd_sc_hd__o311ai_4 abstract view
.subckt sky130_fd_sc_hd__o311ai_4 A1 A2 A3 B1 C1 VGND VNB VPB VPWR Y
.ends

* Black-box entry subcircuit for sky130_fd_sc_hd__o21ai_2 abstract view
.subckt sky130_fd_sc_hd__o21ai_2 A1 A2 B1 VGND VNB VPB VPWR Y
.ends

* Black-box entry subcircuit for sky130_fd_sc_hd__or2b_1 abstract view
.subckt sky130_fd_sc_hd__or2b_1 A B_N VGND VNB VPB VPWR X
.ends

* Black-box entry subcircuit for sky130_fd_sc_hd__dlymetal6s2s_1 abstract view
.subckt sky130_fd_sc_hd__dlymetal6s2s_1 A VGND VNB VPB VPWR X
.ends

* Black-box entry subcircuit for sky130_fd_sc_hd__o21ba_1 abstract view
.subckt sky130_fd_sc_hd__o21ba_1 A1 A2 B1_N VGND VNB VPB VPWR X
.ends

* Black-box entry subcircuit for sky130_fd_sc_hd__clkbuf_1 abstract view
.subckt sky130_fd_sc_hd__clkbuf_1 A VGND VNB VPB VPWR X
.ends

* Black-box entry subcircuit for sky130_fd_sc_hd__clkbuf_4 abstract view
.subckt sky130_fd_sc_hd__clkbuf_4 A VGND VNB VPB VPWR X
.ends

* Black-box entry subcircuit for sky130_fd_sc_hd__decap_3 abstract view
.subckt sky130_fd_sc_hd__decap_3 VGND VNB VPB VPWR
.ends

* Black-box entry subcircuit for sky130_fd_sc_hd__nor2_1 abstract view
.subckt sky130_fd_sc_hd__nor2_1 A B VGND VNB VPB VPWR Y
.ends

* Black-box entry subcircuit for sky130_fd_sc_hd__clkinv_2 abstract view
.subckt sky130_fd_sc_hd__clkinv_2 A VGND VNB VPB VPWR Y
.ends

* Black-box entry subcircuit for sky130_fd_sc_hd__a22oi_4 abstract view
.subckt sky130_fd_sc_hd__a22oi_4 A1 A2 B1 B2 VGND VNB VPB VPWR Y
.ends

* Black-box entry subcircuit for sky130_fd_sc_hd__o21ai_4 abstract view
.subckt sky130_fd_sc_hd__o21ai_4 A1 A2 B1 VGND VNB VPB VPWR Y
.ends

* Black-box entry subcircuit for sky130_fd_sc_hd__a21bo_1 abstract view
.subckt sky130_fd_sc_hd__a21bo_1 A1 A2 B1_N VGND VNB VPB VPWR X
.ends

* Black-box entry subcircuit for sky130_fd_sc_hd__clkinv_4 abstract view
.subckt sky130_fd_sc_hd__clkinv_4 A VGND VNB VPB VPWR Y
.ends

* Black-box entry subcircuit for sky130_fd_sc_hd__nand3_2 abstract view
.subckt sky130_fd_sc_hd__nand3_2 A B C VGND VNB VPB VPWR Y
.ends

* Black-box entry subcircuit for sky130_fd_sc_hd__a22o_2 abstract view
.subckt sky130_fd_sc_hd__a22o_2 A1 A2 B1 B2 VGND VNB VPB VPWR X
.ends

* Black-box entry subcircuit for sky130_fd_sc_hd__a22o_1 abstract view
.subckt sky130_fd_sc_hd__a22o_1 A1 A2 B1 B2 VGND VNB VPB VPWR X
.ends

* Black-box entry subcircuit for sky130_fd_sc_hd__a21oi_1 abstract view
.subckt sky130_fd_sc_hd__a21oi_1 A1 A2 B1 VGND VNB VPB VPWR Y
.ends

* Black-box entry subcircuit for sky130_fd_sc_hd__inv_4 abstract view
.subckt sky130_fd_sc_hd__inv_4 A VGND VNB VPB VPWR Y
.ends

* Black-box entry subcircuit for sky130_fd_sc_hd__o31ai_4 abstract view
.subckt sky130_fd_sc_hd__o31ai_4 A1 A2 A3 B1 VGND VNB VPB VPWR Y
.ends

* Black-box entry subcircuit for sky130_fd_sc_hd__o21bai_1 abstract view
.subckt sky130_fd_sc_hd__o21bai_1 A1 A2 B1_N VGND VNB VPB VPWR Y
.ends

* Black-box entry subcircuit for sky130_fd_sc_hd__nor4b_2 abstract view
.subckt sky130_fd_sc_hd__nor4b_2 A B C D_N VGND VNB VPB VPWR Y
.ends

* Black-box entry subcircuit for sky130_fd_sc_hd__and2b_1 abstract view
.subckt sky130_fd_sc_hd__and2b_1 A_N B VGND VNB VPB VPWR X
.ends

* Black-box entry subcircuit for sky130_fd_sc_hd__o311ai_2 abstract view
.subckt sky130_fd_sc_hd__o311ai_2 A1 A2 A3 B1 C1 VGND VNB VPB VPWR Y
.ends

* Black-box entry subcircuit for sky130_fd_sc_hd__or2_1 abstract view
.subckt sky130_fd_sc_hd__or2_1 A B VGND VNB VPB VPWR X
.ends

* Black-box entry subcircuit for sky130_fd_sc_hd__a22oi_2 abstract view
.subckt sky130_fd_sc_hd__a22oi_2 A1 A2 B1 B2 VGND VNB VPB VPWR Y
.ends

* Black-box entry subcircuit for sky130_fd_sc_hd__inv_6 abstract view
.subckt sky130_fd_sc_hd__inv_6 A VGND VNB VPB VPWR Y
.ends

* Black-box entry subcircuit for sky130_fd_sc_hd__nor2b_2 abstract view
.subckt sky130_fd_sc_hd__nor2b_2 A B_N VGND VNB VPB VPWR Y
.ends

* Black-box entry subcircuit for sky130_fd_sc_hd__dfxtp_2 abstract view
.subckt sky130_fd_sc_hd__dfxtp_2 CLK D VGND VNB VPB VPWR Q
.ends

* Black-box entry subcircuit for sky130_fd_sc_hd__o31a_2 abstract view
.subckt sky130_fd_sc_hd__o31a_2 A1 A2 A3 B1 VGND VNB VPB VPWR X
.ends

* Black-box entry subcircuit for sky130_fd_sc_hd__a21o_1 abstract view
.subckt sky130_fd_sc_hd__a21o_1 A1 A2 B1 VGND VNB VPB VPWR X
.ends

* Black-box entry subcircuit for sky130_fd_sc_hd__and3_1 abstract view
.subckt sky130_fd_sc_hd__and3_1 A B C VGND VNB VPB VPWR X
.ends

* Black-box entry subcircuit for sky130_fd_sc_hd__or3_1 abstract view
.subckt sky130_fd_sc_hd__or3_1 A B C VGND VNB VPB VPWR X
.ends

* Black-box entry subcircuit for sky130_fd_sc_hd__nand2b_4 abstract view
.subckt sky130_fd_sc_hd__nand2b_4 A_N B VGND VNB VPB VPWR Y
.ends

* Black-box entry subcircuit for sky130_fd_sc_hd__a22o_4 abstract view
.subckt sky130_fd_sc_hd__a22o_4 A1 A2 B1 B2 VGND VNB VPB VPWR X
.ends

* Black-box entry subcircuit for sky130_fd_sc_hd__dfxtp_4 abstract view
.subckt sky130_fd_sc_hd__dfxtp_4 CLK D VGND VNB VPB VPWR Q
.ends

* Black-box entry subcircuit for sky130_fd_sc_hd__a21o_4 abstract view
.subckt sky130_fd_sc_hd__a21o_4 A1 A2 B1 VGND VNB VPB VPWR X
.ends

* Black-box entry subcircuit for sky130_fd_sc_hd__buf_6 abstract view
.subckt sky130_fd_sc_hd__buf_6 A VGND VNB VPB VPWR X
.ends

* Black-box entry subcircuit for sky130_fd_sc_hd__nand2b_2 abstract view
.subckt sky130_fd_sc_hd__nand2b_2 A_N B VGND VNB VPB VPWR Y
.ends

* Black-box entry subcircuit for sky130_fd_sc_hd__o41a_4 abstract view
.subckt sky130_fd_sc_hd__o41a_4 A1 A2 A3 A4 B1 VGND VNB VPB VPWR X
.ends

* Black-box entry subcircuit for sky130_fd_sc_hd__o41a_2 abstract view
.subckt sky130_fd_sc_hd__o41a_2 A1 A2 A3 A4 B1 VGND VNB VPB VPWR X
.ends

* Black-box entry subcircuit for sky130_fd_sc_hd__nor3_1 abstract view
.subckt sky130_fd_sc_hd__nor3_1 A B C VGND VNB VPB VPWR Y
.ends

* Black-box entry subcircuit for sky130_fd_sc_hd__nor2b_4 abstract view
.subckt sky130_fd_sc_hd__nor2b_4 A B_N VGND VNB VPB VPWR Y
.ends

* Black-box entry subcircuit for sky130_fd_sc_hd__nor4b_1 abstract view
.subckt sky130_fd_sc_hd__nor4b_1 A B C D_N VGND VNB VPB VPWR Y
.ends

* Black-box entry subcircuit for sky130_fd_sc_hd__nor3_2 abstract view
.subckt sky130_fd_sc_hd__nor3_2 A B C VGND VNB VPB VPWR Y
.ends

* Black-box entry subcircuit for sky130_fd_sc_hd__nor2_2 abstract view
.subckt sky130_fd_sc_hd__nor2_2 A B VGND VNB VPB VPWR Y
.ends

.subckt mkLanaiFrontend CLK EN_core_dmem_request_put EN_core_dmem_response_get EN_core_imem_request_put
+ EN_core_imem_response_get EN_fmc_dmem_request_get EN_fmc_dmem_response_put EN_fmc_imem_request_get
+ EN_fmc_imem_response_put EN_ram_dmem_request_get EN_ram_dmem_response_put EN_ram_imem_request_get
+ EN_ram_imem_response_put RDY_core_dmem_request_put RDY_core_dmem_response_get RDY_core_imem_request_put
+ RDY_core_imem_response_get RDY_fmc_dmem_request_get RDY_fmc_dmem_response_put RDY_fmc_imem_request_get
+ RDY_fmc_imem_response_put RDY_ram_dmem_request_get RDY_ram_dmem_response_put RDY_ram_imem_request_get
+ RDY_ram_imem_response_put RST_N core_dmem_request_put[0] core_dmem_request_put[10]
+ core_dmem_request_put[11] core_dmem_request_put[12] core_dmem_request_put[13] core_dmem_request_put[14]
+ core_dmem_request_put[15] core_dmem_request_put[16] core_dmem_request_put[17] core_dmem_request_put[18]
+ core_dmem_request_put[19] core_dmem_request_put[1] core_dmem_request_put[20] core_dmem_request_put[21]
+ core_dmem_request_put[22] core_dmem_request_put[23] core_dmem_request_put[24] core_dmem_request_put[25]
+ core_dmem_request_put[26] core_dmem_request_put[27] core_dmem_request_put[28] core_dmem_request_put[29]
+ core_dmem_request_put[2] core_dmem_request_put[30] core_dmem_request_put[31] core_dmem_request_put[32]
+ core_dmem_request_put[33] core_dmem_request_put[34] core_dmem_request_put[35] core_dmem_request_put[36]
+ core_dmem_request_put[37] core_dmem_request_put[38] core_dmem_request_put[39] core_dmem_request_put[3]
+ core_dmem_request_put[40] core_dmem_request_put[41] core_dmem_request_put[42] core_dmem_request_put[43]
+ core_dmem_request_put[44] core_dmem_request_put[45] core_dmem_request_put[46] core_dmem_request_put[47]
+ core_dmem_request_put[48] core_dmem_request_put[49] core_dmem_request_put[4] core_dmem_request_put[50]
+ core_dmem_request_put[51] core_dmem_request_put[52] core_dmem_request_put[53] core_dmem_request_put[54]
+ core_dmem_request_put[55] core_dmem_request_put[56] core_dmem_request_put[57] core_dmem_request_put[58]
+ core_dmem_request_put[59] core_dmem_request_put[5] core_dmem_request_put[60] core_dmem_request_put[61]
+ core_dmem_request_put[62] core_dmem_request_put[63] core_dmem_request_put[64] core_dmem_request_put[65]
+ core_dmem_request_put[66] core_dmem_request_put[67] core_dmem_request_put[68] core_dmem_request_put[69]
+ core_dmem_request_put[6] core_dmem_request_put[70] core_dmem_request_put[71] core_dmem_request_put[72]
+ core_dmem_request_put[73] core_dmem_request_put[74] core_dmem_request_put[75] core_dmem_request_put[76]
+ core_dmem_request_put[77] core_dmem_request_put[78] core_dmem_request_put[79] core_dmem_request_put[7]
+ core_dmem_request_put[80] core_dmem_request_put[81] core_dmem_request_put[82] core_dmem_request_put[83]
+ core_dmem_request_put[84] core_dmem_request_put[85] core_dmem_request_put[86] core_dmem_request_put[87]
+ core_dmem_request_put[88] core_dmem_request_put[89] core_dmem_request_put[8] core_dmem_request_put[90]
+ core_dmem_request_put[91] core_dmem_request_put[92] core_dmem_request_put[93] core_dmem_request_put[94]
+ core_dmem_request_put[95] core_dmem_request_put[96] core_dmem_request_put[97] core_dmem_request_put[98]
+ core_dmem_request_put[99] core_dmem_request_put[9] core_dmem_response_get[0] core_dmem_response_get[10]
+ core_dmem_response_get[11] core_dmem_response_get[12] core_dmem_response_get[13]
+ core_dmem_response_get[14] core_dmem_response_get[15] core_dmem_response_get[16]
+ core_dmem_response_get[17] core_dmem_response_get[18] core_dmem_response_get[19]
+ core_dmem_response_get[1] core_dmem_response_get[20] core_dmem_response_get[21]
+ core_dmem_response_get[22] core_dmem_response_get[23] core_dmem_response_get[24]
+ core_dmem_response_get[25] core_dmem_response_get[26] core_dmem_response_get[27]
+ core_dmem_response_get[28] core_dmem_response_get[29] core_dmem_response_get[2]
+ core_dmem_response_get[30] core_dmem_response_get[31] core_dmem_response_get[3]
+ core_dmem_response_get[4] core_dmem_response_get[5] core_dmem_response_get[6] core_dmem_response_get[7]
+ core_dmem_response_get[8] core_dmem_response_get[9] core_imem_request_put[0] core_imem_request_put[10]
+ core_imem_request_put[11] core_imem_request_put[12] core_imem_request_put[13] core_imem_request_put[14]
+ core_imem_request_put[15] core_imem_request_put[16] core_imem_request_put[17] core_imem_request_put[18]
+ core_imem_request_put[19] core_imem_request_put[1] core_imem_request_put[20] core_imem_request_put[21]
+ core_imem_request_put[22] core_imem_request_put[23] core_imem_request_put[24] core_imem_request_put[25]
+ core_imem_request_put[26] core_imem_request_put[27] core_imem_request_put[28] core_imem_request_put[29]
+ core_imem_request_put[2] core_imem_request_put[30] core_imem_request_put[31] core_imem_request_put[3]
+ core_imem_request_put[4] core_imem_request_put[5] core_imem_request_put[6] core_imem_request_put[7]
+ core_imem_request_put[8] core_imem_request_put[9] core_imem_response_get[0] core_imem_response_get[10]
+ core_imem_response_get[11] core_imem_response_get[12] core_imem_response_get[13]
+ core_imem_response_get[14] core_imem_response_get[15] core_imem_response_get[16]
+ core_imem_response_get[17] core_imem_response_get[18] core_imem_response_get[19]
+ core_imem_response_get[1] core_imem_response_get[20] core_imem_response_get[21]
+ core_imem_response_get[22] core_imem_response_get[23] core_imem_response_get[24]
+ core_imem_response_get[25] core_imem_response_get[26] core_imem_response_get[27]
+ core_imem_response_get[28] core_imem_response_get[29] core_imem_response_get[2]
+ core_imem_response_get[30] core_imem_response_get[31] core_imem_response_get[3]
+ core_imem_response_get[4] core_imem_response_get[5] core_imem_response_get[6] core_imem_response_get[7]
+ core_imem_response_get[8] core_imem_response_get[9] fmc_dmem_request_get[0] fmc_dmem_request_get[10]
+ fmc_dmem_request_get[11] fmc_dmem_request_get[12] fmc_dmem_request_get[13] fmc_dmem_request_get[14]
+ fmc_dmem_request_get[15] fmc_dmem_request_get[16] fmc_dmem_request_get[17] fmc_dmem_request_get[18]
+ fmc_dmem_request_get[19] fmc_dmem_request_get[1] fmc_dmem_request_get[20] fmc_dmem_request_get[21]
+ fmc_dmem_request_get[22] fmc_dmem_request_get[23] fmc_dmem_request_get[24] fmc_dmem_request_get[25]
+ fmc_dmem_request_get[26] fmc_dmem_request_get[27] fmc_dmem_request_get[28] fmc_dmem_request_get[29]
+ fmc_dmem_request_get[2] fmc_dmem_request_get[30] fmc_dmem_request_get[31] fmc_dmem_request_get[32]
+ fmc_dmem_request_get[33] fmc_dmem_request_get[34] fmc_dmem_request_get[35] fmc_dmem_request_get[36]
+ fmc_dmem_request_get[37] fmc_dmem_request_get[38] fmc_dmem_request_get[39] fmc_dmem_request_get[3]
+ fmc_dmem_request_get[40] fmc_dmem_request_get[41] fmc_dmem_request_get[42] fmc_dmem_request_get[43]
+ fmc_dmem_request_get[44] fmc_dmem_request_get[45] fmc_dmem_request_get[46] fmc_dmem_request_get[47]
+ fmc_dmem_request_get[48] fmc_dmem_request_get[49] fmc_dmem_request_get[4] fmc_dmem_request_get[50]
+ fmc_dmem_request_get[51] fmc_dmem_request_get[52] fmc_dmem_request_get[53] fmc_dmem_request_get[54]
+ fmc_dmem_request_get[55] fmc_dmem_request_get[56] fmc_dmem_request_get[57] fmc_dmem_request_get[58]
+ fmc_dmem_request_get[59] fmc_dmem_request_get[5] fmc_dmem_request_get[60] fmc_dmem_request_get[61]
+ fmc_dmem_request_get[62] fmc_dmem_request_get[63] fmc_dmem_request_get[64] fmc_dmem_request_get[65]
+ fmc_dmem_request_get[66] fmc_dmem_request_get[67] fmc_dmem_request_get[68] fmc_dmem_request_get[69]
+ fmc_dmem_request_get[6] fmc_dmem_request_get[70] fmc_dmem_request_get[71] fmc_dmem_request_get[72]
+ fmc_dmem_request_get[73] fmc_dmem_request_get[74] fmc_dmem_request_get[75] fmc_dmem_request_get[76]
+ fmc_dmem_request_get[77] fmc_dmem_request_get[78] fmc_dmem_request_get[79] fmc_dmem_request_get[7]
+ fmc_dmem_request_get[80] fmc_dmem_request_get[81] fmc_dmem_request_get[82] fmc_dmem_request_get[83]
+ fmc_dmem_request_get[84] fmc_dmem_request_get[85] fmc_dmem_request_get[86] fmc_dmem_request_get[87]
+ fmc_dmem_request_get[88] fmc_dmem_request_get[89] fmc_dmem_request_get[8] fmc_dmem_request_get[90]
+ fmc_dmem_request_get[91] fmc_dmem_request_get[92] fmc_dmem_request_get[93] fmc_dmem_request_get[94]
+ fmc_dmem_request_get[95] fmc_dmem_request_get[96] fmc_dmem_request_get[97] fmc_dmem_request_get[98]
+ fmc_dmem_request_get[99] fmc_dmem_request_get[9] fmc_dmem_response_put[0] fmc_dmem_response_put[10]
+ fmc_dmem_response_put[11] fmc_dmem_response_put[12] fmc_dmem_response_put[13] fmc_dmem_response_put[14]
+ fmc_dmem_response_put[15] fmc_dmem_response_put[16] fmc_dmem_response_put[17] fmc_dmem_response_put[18]
+ fmc_dmem_response_put[19] fmc_dmem_response_put[1] fmc_dmem_response_put[20] fmc_dmem_response_put[21]
+ fmc_dmem_response_put[22] fmc_dmem_response_put[23] fmc_dmem_response_put[24] fmc_dmem_response_put[25]
+ fmc_dmem_response_put[26] fmc_dmem_response_put[27] fmc_dmem_response_put[28] fmc_dmem_response_put[29]
+ fmc_dmem_response_put[2] fmc_dmem_response_put[30] fmc_dmem_response_put[31] fmc_dmem_response_put[3]
+ fmc_dmem_response_put[4] fmc_dmem_response_put[5] fmc_dmem_response_put[6] fmc_dmem_response_put[7]
+ fmc_dmem_response_put[8] fmc_dmem_response_put[9] fmc_imem_request_get[0] fmc_imem_request_get[10]
+ fmc_imem_request_get[11] fmc_imem_request_get[12] fmc_imem_request_get[13] fmc_imem_request_get[14]
+ fmc_imem_request_get[15] fmc_imem_request_get[16] fmc_imem_request_get[17] fmc_imem_request_get[18]
+ fmc_imem_request_get[19] fmc_imem_request_get[1] fmc_imem_request_get[20] fmc_imem_request_get[21]
+ fmc_imem_request_get[22] fmc_imem_request_get[23] fmc_imem_request_get[24] fmc_imem_request_get[25]
+ fmc_imem_request_get[26] fmc_imem_request_get[27] fmc_imem_request_get[28] fmc_imem_request_get[29]
+ fmc_imem_request_get[2] fmc_imem_request_get[30] fmc_imem_request_get[31] fmc_imem_request_get[3]
+ fmc_imem_request_get[4] fmc_imem_request_get[5] fmc_imem_request_get[6] fmc_imem_request_get[7]
+ fmc_imem_request_get[8] fmc_imem_request_get[9] fmc_imem_response_put[0] fmc_imem_response_put[10]
+ fmc_imem_response_put[11] fmc_imem_response_put[12] fmc_imem_response_put[13] fmc_imem_response_put[14]
+ fmc_imem_response_put[15] fmc_imem_response_put[16] fmc_imem_response_put[17] fmc_imem_response_put[18]
+ fmc_imem_response_put[19] fmc_imem_response_put[1] fmc_imem_response_put[20] fmc_imem_response_put[21]
+ fmc_imem_response_put[22] fmc_imem_response_put[23] fmc_imem_response_put[24] fmc_imem_response_put[25]
+ fmc_imem_response_put[26] fmc_imem_response_put[27] fmc_imem_response_put[28] fmc_imem_response_put[29]
+ fmc_imem_response_put[2] fmc_imem_response_put[30] fmc_imem_response_put[31] fmc_imem_response_put[3]
+ fmc_imem_response_put[4] fmc_imem_response_put[5] fmc_imem_response_put[6] fmc_imem_response_put[7]
+ fmc_imem_response_put[8] fmc_imem_response_put[9] ram_dmem_request_get[0] ram_dmem_request_get[10]
+ ram_dmem_request_get[11] ram_dmem_request_get[12] ram_dmem_request_get[13] ram_dmem_request_get[14]
+ ram_dmem_request_get[15] ram_dmem_request_get[16] ram_dmem_request_get[17] ram_dmem_request_get[18]
+ ram_dmem_request_get[19] ram_dmem_request_get[1] ram_dmem_request_get[20] ram_dmem_request_get[21]
+ ram_dmem_request_get[22] ram_dmem_request_get[23] ram_dmem_request_get[24] ram_dmem_request_get[25]
+ ram_dmem_request_get[26] ram_dmem_request_get[27] ram_dmem_request_get[28] ram_dmem_request_get[29]
+ ram_dmem_request_get[2] ram_dmem_request_get[30] ram_dmem_request_get[31] ram_dmem_request_get[32]
+ ram_dmem_request_get[33] ram_dmem_request_get[34] ram_dmem_request_get[35] ram_dmem_request_get[36]
+ ram_dmem_request_get[37] ram_dmem_request_get[38] ram_dmem_request_get[39] ram_dmem_request_get[3]
+ ram_dmem_request_get[40] ram_dmem_request_get[41] ram_dmem_request_get[42] ram_dmem_request_get[43]
+ ram_dmem_request_get[44] ram_dmem_request_get[45] ram_dmem_request_get[46] ram_dmem_request_get[47]
+ ram_dmem_request_get[48] ram_dmem_request_get[49] ram_dmem_request_get[4] ram_dmem_request_get[50]
+ ram_dmem_request_get[51] ram_dmem_request_get[52] ram_dmem_request_get[53] ram_dmem_request_get[54]
+ ram_dmem_request_get[55] ram_dmem_request_get[56] ram_dmem_request_get[57] ram_dmem_request_get[58]
+ ram_dmem_request_get[59] ram_dmem_request_get[5] ram_dmem_request_get[60] ram_dmem_request_get[61]
+ ram_dmem_request_get[62] ram_dmem_request_get[63] ram_dmem_request_get[64] ram_dmem_request_get[65]
+ ram_dmem_request_get[66] ram_dmem_request_get[67] ram_dmem_request_get[68] ram_dmem_request_get[69]
+ ram_dmem_request_get[6] ram_dmem_request_get[70] ram_dmem_request_get[71] ram_dmem_request_get[72]
+ ram_dmem_request_get[73] ram_dmem_request_get[74] ram_dmem_request_get[75] ram_dmem_request_get[76]
+ ram_dmem_request_get[77] ram_dmem_request_get[78] ram_dmem_request_get[79] ram_dmem_request_get[7]
+ ram_dmem_request_get[80] ram_dmem_request_get[81] ram_dmem_request_get[82] ram_dmem_request_get[83]
+ ram_dmem_request_get[84] ram_dmem_request_get[85] ram_dmem_request_get[86] ram_dmem_request_get[87]
+ ram_dmem_request_get[88] ram_dmem_request_get[89] ram_dmem_request_get[8] ram_dmem_request_get[90]
+ ram_dmem_request_get[91] ram_dmem_request_get[92] ram_dmem_request_get[93] ram_dmem_request_get[94]
+ ram_dmem_request_get[95] ram_dmem_request_get[96] ram_dmem_request_get[97] ram_dmem_request_get[98]
+ ram_dmem_request_get[99] ram_dmem_request_get[9] ram_dmem_response_put[0] ram_dmem_response_put[10]
+ ram_dmem_response_put[11] ram_dmem_response_put[12] ram_dmem_response_put[13] ram_dmem_response_put[14]
+ ram_dmem_response_put[15] ram_dmem_response_put[16] ram_dmem_response_put[17] ram_dmem_response_put[18]
+ ram_dmem_response_put[19] ram_dmem_response_put[1] ram_dmem_response_put[20] ram_dmem_response_put[21]
+ ram_dmem_response_put[22] ram_dmem_response_put[23] ram_dmem_response_put[24] ram_dmem_response_put[25]
+ ram_dmem_response_put[26] ram_dmem_response_put[27] ram_dmem_response_put[28] ram_dmem_response_put[29]
+ ram_dmem_response_put[2] ram_dmem_response_put[30] ram_dmem_response_put[31] ram_dmem_response_put[3]
+ ram_dmem_response_put[4] ram_dmem_response_put[5] ram_dmem_response_put[6] ram_dmem_response_put[7]
+ ram_dmem_response_put[8] ram_dmem_response_put[9] ram_imem_request_get[0] ram_imem_request_get[10]
+ ram_imem_request_get[11] ram_imem_request_get[12] ram_imem_request_get[13] ram_imem_request_get[14]
+ ram_imem_request_get[15] ram_imem_request_get[16] ram_imem_request_get[17] ram_imem_request_get[18]
+ ram_imem_request_get[19] ram_imem_request_get[1] ram_imem_request_get[20] ram_imem_request_get[21]
+ ram_imem_request_get[22] ram_imem_request_get[23] ram_imem_request_get[24] ram_imem_request_get[25]
+ ram_imem_request_get[26] ram_imem_request_get[27] ram_imem_request_get[28] ram_imem_request_get[29]
+ ram_imem_request_get[2] ram_imem_request_get[30] ram_imem_request_get[31] ram_imem_request_get[3]
+ ram_imem_request_get[4] ram_imem_request_get[5] ram_imem_request_get[6] ram_imem_request_get[7]
+ ram_imem_request_get[8] ram_imem_request_get[9] ram_imem_response_put[0] ram_imem_response_put[10]
+ ram_imem_response_put[11] ram_imem_response_put[12] ram_imem_response_put[13] ram_imem_response_put[14]
+ ram_imem_response_put[15] ram_imem_response_put[16] ram_imem_response_put[17] ram_imem_response_put[18]
+ ram_imem_response_put[19] ram_imem_response_put[1] ram_imem_response_put[20] ram_imem_response_put[21]
+ ram_imem_response_put[22] ram_imem_response_put[23] ram_imem_response_put[24] ram_imem_response_put[25]
+ ram_imem_response_put[26] ram_imem_response_put[27] ram_imem_response_put[28] ram_imem_response_put[29]
+ ram_imem_response_put[2] ram_imem_response_put[30] ram_imem_response_put[31] ram_imem_response_put[3]
+ ram_imem_response_put[4] ram_imem_response_put[5] ram_imem_response_put[6] ram_imem_response_put[7]
+ ram_imem_response_put[8] ram_imem_response_put[9] vccd1 vssd1
XTAP_199 vssd1 vccd1 sky130_fd_sc_hd__tapvpwrvgnd_1
XFILLER_39_233 vssd1 vssd1 vccd1 vccd1 sky130_fd_sc_hd__decap_8
XFILLER_54_203 vssd1 vssd1 vccd1 vccd1 sky130_fd_sc_hd__decap_6
X_3155_ _2462_/X _3155_/A2 _2587_/X _2588_/X _3130_/A vssd1 vssd1 vccd1 vccd1 _3489_/D
+ sky130_fd_sc_hd__a221o_1
X_3086_ _2077_/C _3077_/X _3081_/X _2399_/Y vssd1 vssd1 vccd1 vccd1 _3436_/D sky130_fd_sc_hd__o211ai_1
X_2106_ _2127_/A _2134_/B _2106_/C vssd1 vssd1 vccd1 vccd1 _2106_/Y sky130_fd_sc_hd__nand3_1
X_2037_ _3324_/Q _2020_/X _2036_/Y vssd1 vssd1 vccd1 vccd1 _2037_/X sky130_fd_sc_hd__o21a_1
XANTENNA__1997__C _1997_/C vssd1 vssd1 vccd1 vccd1 sky130_fd_sc_hd__diode_2
XFILLER_52_29 vssd1 vssd1 vccd1 vccd1 sky130_fd_sc_hd__decap_12
XFILLER_22_133 vssd1 vssd1 vccd1 vccd1 sky130_fd_sc_hd__decap_6
XFILLER_50_475 vssd1 vssd1 vccd1 vccd1 sky130_fd_sc_hd__fill_1
XFILLER_22_177 vssd1 vssd1 vccd1 vccd1 sky130_fd_sc_hd__decap_4
X_2939_ _3341_/Q _2931_/X _2099_/Y vssd1 vssd1 vccd1 vccd1 _2940_/A sky130_fd_sc_hd__o21ai_1
XFILLER_89_111 vssd1 vssd1 vccd1 vccd1 sky130_fd_sc_hd__fill_1
XFILLER_89_144 vssd1 vssd1 vccd1 vccd1 sky130_fd_sc_hd__fill_1
XFILLER_77_15 vssd1 vssd1 vccd1 vccd1 sky130_fd_sc_hd__decap_12
XFILLER_2_549 vssd1 vssd1 vccd1 vccd1 sky130_fd_sc_hd__decap_6
XFILLER_92_309 vssd1 vssd1 vccd1 vccd1 sky130_fd_sc_hd__fill_2
XFILLER_73_523 vssd1 vssd1 vccd1 vccd1 sky130_fd_sc_hd__decap_4
XANTENNA_input127_A core_imem_request_put[21] vssd1 vssd1 vccd1 vccd1 sky130_fd_sc_hd__diode_2
XFILLER_45_203 vssd1 vssd1 vccd1 vccd1 sky130_fd_sc_hd__decap_4
XFILLER_45_225 vssd1 vssd1 vccd1 vccd1 sky130_fd_sc_hd__decap_4
XFILLER_93_69 vssd1 vssd1 vccd1 vccd1 sky130_fd_sc_hd__decap_6
XFILLER_26_41 vssd1 vssd1 vccd1 vccd1 sky130_fd_sc_hd__fill_1
XFILLER_33_409 vssd1 vssd1 vccd1 vccd1 sky130_fd_sc_hd__decap_4
XFILLER_26_461 vssd1 vssd1 vccd1 vccd1 sky130_fd_sc_hd__decap_8
XFILLER_26_472 vssd1 vssd1 vccd1 vccd1 sky130_fd_sc_hd__decap_4
XFILLER_26_85 vssd1 vssd1 vccd1 vccd1 sky130_fd_sc_hd__fill_2
XFILLER_13_144 vssd1 vssd1 vccd1 vccd1 sky130_fd_sc_hd__decap_4
XFILLER_9_126 vssd1 vssd1 vccd1 vccd1 sky130_fd_sc_hd__decap_4
XFILLER_41_497 vssd1 vssd1 vccd1 vccd1 sky130_fd_sc_hd__fill_1
XANTENNA_input92_A core_dmem_request_put[80] vssd1 vssd1 vccd1 vccd1 sky130_fd_sc_hd__diode_2
XFILLER_5_376 vssd1 vssd1 vccd1 vccd1 sky130_fd_sc_hd__decap_6
XFILLER_3_23 vssd1 vssd1 vccd1 vccd1 sky130_fd_sc_hd__decap_4
XFILLER_95_136 vssd1 vssd1 vccd1 vccd1 sky130_fd_sc_hd__decap_4
XFILLER_68_339 vssd1 vssd1 vccd1 vccd1 sky130_fd_sc_hd__decap_4
XFILLER_3_78 vssd1 vssd1 vccd1 vccd1 sky130_fd_sc_hd__decap_6
XFILLER_3_67 vssd1 vssd1 vccd1 vccd1 sky130_fd_sc_hd__decap_4
XFILLER_95_169 vssd1 vssd1 vccd1 vccd1 sky130_fd_sc_hd__decap_4
Xclkbuf_leaf_6_CLK clkbuf_2_2_0_CLK/X vssd1 vssd1 vccd1 vccd1 _3368_/CLK sky130_fd_sc_hd__clkbuf_16
XFILLER_51_239 vssd1 vssd1 vccd1 vccd1 sky130_fd_sc_hd__decap_6
XFILLER_32_475 vssd1 vssd1 vccd1 vccd1 sky130_fd_sc_hd__fill_1
X_2724_ _1541_/X _1534_/X _1562_/A _3223_/Q _2723_/X vssd1 vssd1 vccd1 vccd1 _3223_/D
+ sky130_fd_sc_hd__a221o_1
XFILLER_8_181 vssd1 vssd1 vccd1 vccd1 sky130_fd_sc_hd__decap_4
Xoutput401 _2009_/X vssd1 vssd1 vccd1 vccd1 fmc_dmem_request_get[56] sky130_fd_sc_hd__buf_2
XFILLER_8_192 vssd1 vssd1 vccd1 vccd1 sky130_fd_sc_hd__decap_4
X_2655_ _2655_/A _2655_/B vssd1 vssd1 vccd1 vccd1 _3178_/D sky130_fd_sc_hd__nand2_1
Xoutput434 _2118_/X vssd1 vssd1 vccd1 vccd1 fmc_dmem_request_get[86] sky130_fd_sc_hd__buf_2
Xoutput423 _2082_/X vssd1 vssd1 vccd1 vccd1 fmc_dmem_request_get[76] sky130_fd_sc_hd__buf_2
Xoutput412 _2045_/X vssd1 vssd1 vccd1 vccd1 fmc_dmem_request_get[66] sky130_fd_sc_hd__buf_2
X_1606_ _1606_/A vssd1 vssd1 vccd1 vccd1 _1606_/X sky130_fd_sc_hd__buf_4
Xoutput445 _2153_/X vssd1 vssd1 vccd1 vccd1 fmc_dmem_request_get[96] sky130_fd_sc_hd__buf_2
Xoutput467 _1517_/X vssd1 vssd1 vccd1 vccd1 fmc_imem_request_get[25] sky130_fd_sc_hd__buf_2
X_2586_ _3154_/B vssd1 vssd1 vccd1 vccd1 _2586_/Y sky130_fd_sc_hd__inv_2
Xoutput478 _1448_/X vssd1 vssd1 vccd1 vccd1 fmc_imem_request_get[6] sky130_fd_sc_hd__buf_2
Xoutput456 _1481_/X vssd1 vssd1 vccd1 vccd1 fmc_imem_request_get[15] sky130_fd_sc_hd__buf_2
Xoutput489 _2229_/X vssd1 vssd1 vccd1 vccd1 ram_dmem_request_get[16] sky130_fd_sc_hd__buf_2
XFILLER_59_317 vssd1 vssd1 vccd1 vccd1 sky130_fd_sc_hd__decap_4
X_1537_ _1563_/A vssd1 vssd1 vccd1 vccd1 _1537_/X sky130_fd_sc_hd__clkbuf_2
XFILLER_86_136 vssd1 vssd1 vccd1 vccd1 sky130_fd_sc_hd__decap_4
X_1468_ _3172_/Q _1462_/X _1467_/Y vssd1 vssd1 vccd1 vccd1 _1468_/X sky130_fd_sc_hd__o21a_2
XFILLER_74_309 vssd1 vssd1 vccd1 vccd1 sky130_fd_sc_hd__decap_4