* NGSPICE file created from mkQF100Fabric.ext - technology: sky130A

* Black-box entry subcircuit for sky130_ef_sc_hd__fakediode_2 abstract view
.subckt sky130_ef_sc_hd__fakediode_2 DIODE VGND VPWR VPB VNB
.ends

* Black-box entry subcircuit for sky130_fd_sc_hd__fill_1 abstract view
.subckt sky130_fd_sc_hd__fill_1 VGND VNB VPB VPWR
.ends

* Black-box entry subcircuit for sky130_fd_sc_hd__mux2_2 abstract view
.subckt sky130_fd_sc_hd__mux2_2 A0 A1 S VGND VNB VPB VPWR X
.ends

* Black-box entry subcircuit for sky130_fd_sc_hd__decap_12 abstract view
.subckt sky130_fd_sc_hd__decap_12 VGND VNB VPB VPWR
.ends

* Black-box entry subcircuit for sky130_fd_sc_hd__decap_4 abstract view
.subckt sky130_fd_sc_hd__decap_4 VGND VNB VPB VPWR
.ends

* Black-box entry subcircuit for sky130_fd_sc_hd__mux2_1 abstract view
.subckt sky130_fd_sc_hd__mux2_1 A0 A1 S VGND VNB VPB VPWR X
.ends

* Black-box entry subcircuit for sky130_fd_sc_hd__decap_6 abstract view
.subckt sky130_fd_sc_hd__decap_6 VGND VNB VPB VPWR
.ends

* Black-box entry subcircuit for sky130_fd_sc_hd__clkbuf_1 abstract view
.subckt sky130_fd_sc_hd__clkbuf_1 A VGND VNB VPB VPWR X
.ends

* Black-box entry subcircuit for sky130_fd_sc_hd__dfxtp_1 abstract view
.subckt sky130_fd_sc_hd__dfxtp_1 CLK D VGND VNB VPB VPWR Q
.ends

* Black-box entry subcircuit for sky130_fd_sc_hd__o21ai_4 abstract view
.subckt sky130_fd_sc_hd__o21ai_4 A1 A2 B1 VGND VNB VPB VPWR Y
.ends

* Black-box entry subcircuit for sky130_fd_sc_hd__tapvpwrvgnd_1 abstract view
.subckt sky130_fd_sc_hd__tapvpwrvgnd_1 VGND VPWR
.ends

* Black-box entry subcircuit for sky130_fd_sc_hd__decap_3 abstract view
.subckt sky130_fd_sc_hd__decap_3 VGND VNB VPB VPWR
.ends

* Black-box entry subcircuit for sky130_fd_sc_hd__fill_2 abstract view
.subckt sky130_fd_sc_hd__fill_2 VGND VNB VPB VPWR
.ends

* Black-box entry subcircuit for sky130_fd_sc_hd__clkbuf_16 abstract view
.subckt sky130_fd_sc_hd__clkbuf_16 A VGND VNB VPB VPWR X
.ends

* Black-box entry subcircuit for sky130_fd_sc_hd__o211ai_1 abstract view
.subckt sky130_fd_sc_hd__o211ai_1 A1 A2 B1 C1 VGND VNB VPB VPWR Y
.ends

* Black-box entry subcircuit for sky130_fd_sc_hd__buf_8 abstract view
.subckt sky130_fd_sc_hd__buf_8 A VGND VNB VPB VPWR X
.ends

* Black-box entry subcircuit for sky130_fd_sc_hd__o22ai_4 abstract view
.subckt sky130_fd_sc_hd__o22ai_4 A1 A2 B1 B2 VGND VNB VPB VPWR Y
.ends

* Black-box entry subcircuit for sky130_fd_sc_hd__o2111ai_1 abstract view
.subckt sky130_fd_sc_hd__o2111ai_1 A1 A2 B1 C1 D1 VGND VNB VPB VPWR Y
.ends

* Black-box entry subcircuit for sky130_fd_sc_hd__nand4_2 abstract view
.subckt sky130_fd_sc_hd__nand4_2 A B C D VGND VNB VPB VPWR Y
.ends

* Black-box entry subcircuit for sky130_fd_sc_hd__buf_2 abstract view
.subckt sky130_fd_sc_hd__buf_2 A VGND VNB VPB VPWR X
.ends

* Black-box entry subcircuit for sky130_fd_sc_hd__inv_2 abstract view
.subckt sky130_fd_sc_hd__inv_2 A VGND VNB VPB VPWR Y
.ends

* Black-box entry subcircuit for sky130_fd_sc_hd__clkbuf_2 abstract view
.subckt sky130_fd_sc_hd__clkbuf_2 A VGND VNB VPB VPWR X
.ends

* Black-box entry subcircuit for sky130_fd_sc_hd__and4_4 abstract view
.subckt sky130_fd_sc_hd__and4_4 A B C D VGND VNB VPB VPWR X
.ends

* Black-box entry subcircuit for sky130_fd_sc_hd__dlymetal6s2s_1 abstract view
.subckt sky130_fd_sc_hd__dlymetal6s2s_1 A VGND VNB VPB VPWR X
.ends

* Black-box entry subcircuit for sky130_fd_sc_hd__o221a_1 abstract view
.subckt sky130_fd_sc_hd__o221a_1 A1 A2 B1 B2 C1 VGND VNB VPB VPWR X
.ends

* Black-box entry subcircuit for sky130_fd_sc_hd__clkbuf_4 abstract view
.subckt sky130_fd_sc_hd__clkbuf_4 A VGND VNB VPB VPWR X
.ends

* Black-box entry subcircuit for sky130_fd_sc_hd__o21a_1 abstract view
.subckt sky130_fd_sc_hd__o21a_1 A1 A2 B1 VGND VNB VPB VPWR X
.ends

* Black-box entry subcircuit for sky130_fd_sc_hd__and2_1 abstract view
.subckt sky130_fd_sc_hd__and2_1 A B VGND VNB VPB VPWR X
.ends

* Black-box entry subcircuit for sky130_fd_sc_hd__nand2_1 abstract view
.subckt sky130_fd_sc_hd__nand2_1 A B VGND VNB VPB VPWR Y
.ends

* Black-box entry subcircuit for sky130_fd_sc_hd__decap_8 abstract view
.subckt sky130_fd_sc_hd__decap_8 VGND VNB VPB VPWR
.ends

* Black-box entry subcircuit for sky130_fd_sc_hd__o2bb2ai_2 abstract view
.subckt sky130_fd_sc_hd__o2bb2ai_2 A1_N A2_N B1 B2 VGND VNB VPB VPWR Y
.ends

* Black-box entry subcircuit for sky130_fd_sc_hd__and3_1 abstract view
.subckt sky130_fd_sc_hd__and3_1 A B C VGND VNB VPB VPWR X
.ends

* Black-box entry subcircuit for sky130_fd_sc_hd__a221o_1 abstract view
.subckt sky130_fd_sc_hd__a221o_1 A1 A2 B1 B2 C1 VGND VNB VPB VPWR X
.ends

* Black-box entry subcircuit for sky130_fd_sc_hd__or3_1 abstract view
.subckt sky130_fd_sc_hd__or3_1 A B C VGND VNB VPB VPWR X
.ends

* Black-box entry subcircuit for sky130_fd_sc_hd__nor2_1 abstract view
.subckt sky130_fd_sc_hd__nor2_1 A B VGND VNB VPB VPWR Y
.ends

* Black-box entry subcircuit for sky130_fd_sc_hd__and4_1 abstract view
.subckt sky130_fd_sc_hd__and4_1 A B C D VGND VNB VPB VPWR X
.ends

* Black-box entry subcircuit for sky130_fd_sc_hd__buf_6 abstract view
.subckt sky130_fd_sc_hd__buf_6 A VGND VNB VPB VPWR X
.ends

* Black-box entry subcircuit for sky130_fd_sc_hd__a211o_1 abstract view
.subckt sky130_fd_sc_hd__a211o_1 A1 A2 B1 C1 VGND VNB VPB VPWR X
.ends

* Black-box entry subcircuit for sky130_fd_sc_hd__a311o_1 abstract view
.subckt sky130_fd_sc_hd__a311o_1 A1 A2 A3 B1 C1 VGND VNB VPB VPWR X
.ends

* Black-box entry subcircuit for sky130_fd_sc_hd__nand4b_4 abstract view
.subckt sky130_fd_sc_hd__nand4b_4 A_N B C D VGND VNB VPB VPWR Y
.ends

* Black-box entry subcircuit for sky130_fd_sc_hd__o211ai_2 abstract view
.subckt sky130_fd_sc_hd__o211ai_2 A1 A2 B1 C1 VGND VNB VPB VPWR Y
.ends

* Black-box entry subcircuit for sky130_fd_sc_hd__mux2_8 abstract view
.subckt sky130_fd_sc_hd__mux2_8 A0 A1 S VGND VNB VPB VPWR X
.ends

* Black-box entry subcircuit for sky130_fd_sc_hd__nor2_8 abstract view
.subckt sky130_fd_sc_hd__nor2_8 A B VGND VNB VPB VPWR Y
.ends

* Black-box entry subcircuit for sky130_fd_sc_hd__o21ai_1 abstract view
.subckt sky130_fd_sc_hd__o21ai_1 A1 A2 B1 VGND VNB VPB VPWR Y
.ends

* Black-box entry subcircuit for sky130_fd_sc_hd__a21oi_4 abstract view
.subckt sky130_fd_sc_hd__a21oi_4 A1 A2 B1 VGND VNB VPB VPWR Y
.ends

* Black-box entry subcircuit for sky130_fd_sc_hd__and4bb_1 abstract view
.subckt sky130_fd_sc_hd__and4bb_1 A_N B_N C D VGND VNB VPB VPWR X
.ends

* Black-box entry subcircuit for sky130_fd_sc_hd__o2111a_1 abstract view
.subckt sky130_fd_sc_hd__o2111a_1 A1 A2 B1 C1 D1 VGND VNB VPB VPWR X
.ends

* Black-box entry subcircuit for sky130_fd_sc_hd__o211ai_4 abstract view
.subckt sky130_fd_sc_hd__o211ai_4 A1 A2 B1 C1 VGND VNB VPB VPWR Y
.ends

* Black-box entry subcircuit for sky130_fd_sc_hd__nand4_1 abstract view
.subckt sky130_fd_sc_hd__nand4_1 A B C D VGND VNB VPB VPWR Y
.ends

* Black-box entry subcircuit for sky130_fd_sc_hd__or2_1 abstract view
.subckt sky130_fd_sc_hd__or2_1 A B VGND VNB VPB VPWR X
.ends

* Black-box entry subcircuit for sky130_fd_sc_hd__a21oi_2 abstract view
.subckt sky130_fd_sc_hd__a21oi_2 A1 A2 B1 VGND VNB VPB VPWR Y
.ends

* Black-box entry subcircuit for sky130_fd_sc_hd__a21boi_2 abstract view
.subckt sky130_fd_sc_hd__a21boi_2 A1 A2 B1_N VGND VNB VPB VPWR Y
.ends

* Black-box entry subcircuit for sky130_fd_sc_hd__buf_12 abstract view
.subckt sky130_fd_sc_hd__buf_12 A VGND VNB VPB VPWR X
.ends

* Black-box entry subcircuit for sky130_fd_sc_hd__buf_4 abstract view
.subckt sky130_fd_sc_hd__buf_4 A VGND VNB VPB VPWR X
.ends

* Black-box entry subcircuit for sky130_fd_sc_hd__a21oi_1 abstract view
.subckt sky130_fd_sc_hd__a21oi_1 A1 A2 B1 VGND VNB VPB VPWR Y
.ends

* Black-box entry subcircuit for sky130_fd_sc_hd__nand3_4 abstract view
.subckt sky130_fd_sc_hd__nand3_4 A B C VGND VNB VPB VPWR Y
.ends

* Black-box entry subcircuit for sky130_fd_sc_hd__nand4_4 abstract view
.subckt sky130_fd_sc_hd__nand4_4 A B C D VGND VNB VPB VPWR Y
.ends

* Black-box entry subcircuit for sky130_fd_sc_hd__o221ai_4 abstract view
.subckt sky130_fd_sc_hd__o221ai_4 A1 A2 B1 B2 C1 VGND VNB VPB VPWR Y
.ends

* Black-box entry subcircuit for sky130_fd_sc_hd__a21o_1 abstract view
.subckt sky130_fd_sc_hd__a21o_1 A1 A2 B1 VGND VNB VPB VPWR X
.ends

* Black-box entry subcircuit for sky130_fd_sc_hd__o311a_1 abstract view
.subckt sky130_fd_sc_hd__o311a_1 A1 A2 A3 B1 C1 VGND VNB VPB VPWR X
.ends

* Black-box entry subcircuit for sky130_fd_sc_hd__o21bai_4 abstract view
.subckt sky130_fd_sc_hd__o21bai_4 A1 A2 B1_N VGND VNB VPB VPWR Y
.ends

* Black-box entry subcircuit for sky130_fd_sc_hd__clkbuf_8 abstract view
.subckt sky130_fd_sc_hd__clkbuf_8 A VGND VNB VPB VPWR X
.ends

* Black-box entry subcircuit for sky130_fd_sc_hd__and4_2 abstract view
.subckt sky130_fd_sc_hd__and4_2 A B C D VGND VNB VPB VPWR X
.ends

* Black-box entry subcircuit for sky130_fd_sc_hd__nand4b_2 abstract view
.subckt sky130_fd_sc_hd__nand4b_2 A_N B C D VGND VNB VPB VPWR Y
.ends

* Black-box entry subcircuit for sky130_fd_sc_hd__nor2_4 abstract view
.subckt sky130_fd_sc_hd__nor2_4 A B VGND VNB VPB VPWR Y
.ends

* Black-box entry subcircuit for sky130_fd_sc_hd__mux2_4 abstract view
.subckt sky130_fd_sc_hd__mux2_4 A0 A1 S VGND VNB VPB VPWR X
.ends

* Black-box entry subcircuit for sky130_fd_sc_hd__a211oi_4 abstract view
.subckt sky130_fd_sc_hd__a211oi_4 A1 A2 B1 C1 VGND VNB VPB VPWR Y
.ends

* Black-box entry subcircuit for sky130_fd_sc_hd__or2_2 abstract view
.subckt sky130_fd_sc_hd__or2_2 A B VGND VNB VPB VPWR X
.ends

* Black-box entry subcircuit for sky130_fd_sc_hd__o2111ai_4 abstract view
.subckt sky130_fd_sc_hd__o2111ai_4 A1 A2 B1 C1 D1 VGND VNB VPB VPWR Y
.ends

* Black-box entry subcircuit for sky130_fd_sc_hd__a22oi_4 abstract view
.subckt sky130_fd_sc_hd__a22oi_4 A1 A2 B1 B2 VGND VNB VPB VPWR Y
.ends

* Black-box entry subcircuit for sky130_fd_sc_hd__o2bb2ai_1 abstract view
.subckt sky130_fd_sc_hd__o2bb2ai_1 A1_N A2_N B1 B2 VGND VNB VPB VPWR Y
.ends

* Black-box entry subcircuit for sky130_fd_sc_hd__inv_4 abstract view
.subckt sky130_fd_sc_hd__inv_4 A VGND VNB VPB VPWR Y
.ends

* Black-box entry subcircuit for sky130_fd_sc_hd__o21ai_2 abstract view
.subckt sky130_fd_sc_hd__o21ai_2 A1 A2 B1 VGND VNB VPB VPWR Y
.ends

* Black-box entry subcircuit for sky130_fd_sc_hd__nor4_1 abstract view
.subckt sky130_fd_sc_hd__nor4_1 A B C D VGND VNB VPB VPWR Y
.ends

* Black-box entry subcircuit for sky130_fd_sc_hd__o21a_2 abstract view
.subckt sky130_fd_sc_hd__o21a_2 A1 A2 B1 VGND VNB VPB VPWR X
.ends

* Black-box entry subcircuit for sky130_fd_sc_hd__a21o_2 abstract view
.subckt sky130_fd_sc_hd__a21o_2 A1 A2 B1 VGND VNB VPB VPWR X
.ends

* Black-box entry subcircuit for sky130_fd_sc_hd__nand3_1 abstract view
.subckt sky130_fd_sc_hd__nand3_1 A B C VGND VNB VPB VPWR Y
.ends

* Black-box entry subcircuit for sky130_fd_sc_hd__clkinv_4 abstract view
.subckt sky130_fd_sc_hd__clkinv_4 A VGND VNB VPB VPWR Y
.ends

* Black-box entry subcircuit for sky130_fd_sc_hd__a31oi_4 abstract view
.subckt sky130_fd_sc_hd__a31oi_4 A1 A2 A3 B1 VGND VNB VPB VPWR Y
.ends

* Black-box entry subcircuit for sky130_fd_sc_hd__o22ai_1 abstract view
.subckt sky130_fd_sc_hd__o22ai_1 A1 A2 B1 B2 VGND VNB VPB VPWR Y
.ends

* Black-box entry subcircuit for sky130_fd_sc_hd__a211oi_1 abstract view
.subckt sky130_fd_sc_hd__a211oi_1 A1 A2 B1 C1 VGND VNB VPB VPWR Y
.ends

* Black-box entry subcircuit for sky130_fd_sc_hd__o211a_1 abstract view
.subckt sky130_fd_sc_hd__o211a_1 A1 A2 B1 C1 VGND VNB VPB VPWR X
.ends

* Black-box entry subcircuit for sky130_fd_sc_hd__nor3_2 abstract view
.subckt sky130_fd_sc_hd__nor3_2 A B C VGND VNB VPB VPWR Y
.ends

* Black-box entry subcircuit for sky130_fd_sc_hd__o2bb2ai_4 abstract view
.subckt sky130_fd_sc_hd__o2bb2ai_4 A1_N A2_N B1 B2 VGND VNB VPB VPWR Y
.ends

* Black-box entry subcircuit for sky130_fd_sc_hd__nor3_4 abstract view
.subckt sky130_fd_sc_hd__nor3_4 A B C VGND VNB VPB VPWR Y
.ends

* Black-box entry subcircuit for sky130_fd_sc_hd__conb_1 abstract view
.subckt sky130_fd_sc_hd__conb_1 VGND VNB VPB VPWR HI LO
.ends

* Black-box entry subcircuit for sky130_fd_sc_hd__o21bai_2 abstract view
.subckt sky130_fd_sc_hd__o21bai_2 A1 A2 B1_N VGND VNB VPB VPWR Y
.ends

* Black-box entry subcircuit for sky130_fd_sc_hd__a21boi_1 abstract view
.subckt sky130_fd_sc_hd__a21boi_1 A1 A2 B1_N VGND VNB VPB VPWR Y
.ends

* Black-box entry subcircuit for sky130_fd_sc_hd__a211oi_2 abstract view
.subckt sky130_fd_sc_hd__a211oi_2 A1 A2 B1 C1 VGND VNB VPB VPWR Y
.ends

* Black-box entry subcircuit for sky130_fd_sc_hd__nand3_2 abstract view
.subckt sky130_fd_sc_hd__nand3_2 A B C VGND VNB VPB VPWR Y
.ends

* Black-box entry subcircuit for sky130_fd_sc_hd__nand3b_4 abstract view
.subckt sky130_fd_sc_hd__nand3b_4 A_N B C VGND VNB VPB VPWR Y
.ends

* Black-box entry subcircuit for sky130_fd_sc_hd__and4bb_2 abstract view
.subckt sky130_fd_sc_hd__and4bb_2 A_N B_N C D VGND VNB VPB VPWR X
.ends

* Black-box entry subcircuit for sky130_fd_sc_hd__o221ai_2 abstract view
.subckt sky130_fd_sc_hd__o221ai_2 A1 A2 B1 B2 C1 VGND VNB VPB VPWR Y
.ends

* Black-box entry subcircuit for sky130_fd_sc_hd__clkinv_2 abstract view
.subckt sky130_fd_sc_hd__clkinv_2 A VGND VNB VPB VPWR Y
.ends

* Black-box entry subcircuit for sky130_fd_sc_hd__o31a_2 abstract view
.subckt sky130_fd_sc_hd__o31a_2 A1 A2 A3 B1 VGND VNB VPB VPWR X
.ends

* Black-box entry subcircuit for sky130_fd_sc_hd__o2111ai_2 abstract view
.subckt sky130_fd_sc_hd__o2111ai_2 A1 A2 B1 C1 D1 VGND VNB VPB VPWR Y
.ends

* Black-box entry subcircuit for sky130_fd_sc_hd__and4b_4 abstract view
.subckt sky130_fd_sc_hd__and4b_4 A_N B C D VGND VNB VPB VPWR X
.ends

* Black-box entry subcircuit for sky130_fd_sc_hd__or4_1 abstract view
.subckt sky130_fd_sc_hd__or4_1 A B C D VGND VNB VPB VPWR X
.ends

* Black-box entry subcircuit for sky130_fd_sc_hd__nor3b_2 abstract view
.subckt sky130_fd_sc_hd__nor3b_2 A B C_N VGND VNB VPB VPWR Y
.ends

* Black-box entry subcircuit for sky130_fd_sc_hd__a31o_1 abstract view
.subckt sky130_fd_sc_hd__a31o_1 A1 A2 A3 B1 VGND VNB VPB VPWR X
.ends

* Black-box entry subcircuit for sky130_fd_sc_hd__o211a_2 abstract view
.subckt sky130_fd_sc_hd__o211a_2 A1 A2 B1 C1 VGND VNB VPB VPWR X
.ends

* Black-box entry subcircuit for sky130_fd_sc_hd__dfxtp_2 abstract view
.subckt sky130_fd_sc_hd__dfxtp_2 CLK D VGND VNB VPB VPWR Q
.ends

* Black-box entry subcircuit for sky130_fd_sc_hd__nor3_1 abstract view
.subckt sky130_fd_sc_hd__nor3_1 A B C VGND VNB VPB VPWR Y
.ends

* Black-box entry subcircuit for sky130_fd_sc_hd__a31oi_2 abstract view
.subckt sky130_fd_sc_hd__a31oi_2 A1 A2 A3 B1 VGND VNB VPB VPWR Y
.ends

* Black-box entry subcircuit for sky130_fd_sc_hd__o21a_4 abstract view
.subckt sky130_fd_sc_hd__o21a_4 A1 A2 B1 VGND VNB VPB VPWR X
.ends

* Black-box entry subcircuit for sky130_fd_sc_hd__and3_2 abstract view
.subckt sky130_fd_sc_hd__and3_2 A B C VGND VNB VPB VPWR X
.ends

* Black-box entry subcircuit for sky130_fd_sc_hd__or3b_1 abstract view
.subckt sky130_fd_sc_hd__or3b_1 A B C_N VGND VNB VPB VPWR X
.ends

* Black-box entry subcircuit for sky130_fd_sc_hd__o311a_2 abstract view
.subckt sky130_fd_sc_hd__o311a_2 A1 A2 A3 B1 C1 VGND VNB VPB VPWR X
.ends

* Black-box entry subcircuit for sky130_fd_sc_hd__or3b_4 abstract view
.subckt sky130_fd_sc_hd__or3b_4 A B C_N VGND VNB VPB VPWR X
.ends

* Black-box entry subcircuit for sky130_fd_sc_hd__nor2_2 abstract view
.subckt sky130_fd_sc_hd__nor2_2 A B VGND VNB VPB VPWR Y
.ends

* Black-box entry subcircuit for sky130_fd_sc_hd__a31o_2 abstract view
.subckt sky130_fd_sc_hd__a31o_2 A1 A2 A3 B1 VGND VNB VPB VPWR X
.ends

* Black-box entry subcircuit for sky130_fd_sc_hd__dfxtp_4 abstract view
.subckt sky130_fd_sc_hd__dfxtp_4 CLK D VGND VNB VPB VPWR Q
.ends

* Black-box entry subcircuit for sky130_fd_sc_hd__a2bb2oi_2 abstract view
.subckt sky130_fd_sc_hd__a2bb2oi_2 A1_N A2_N B1 B2 VGND VNB VPB VPWR Y
.ends

* Black-box entry subcircuit for sky130_fd_sc_hd__nand2_4 abstract view
.subckt sky130_fd_sc_hd__nand2_4 A B VGND VNB VPB VPWR Y
.ends

* Black-box entry subcircuit for sky130_fd_sc_hd__o21ba_1 abstract view
.subckt sky130_fd_sc_hd__o21ba_1 A1 A2 B1_N VGND VNB VPB VPWR X
.ends

* Black-box entry subcircuit for sky130_fd_sc_hd__o21bai_1 abstract view
.subckt sky130_fd_sc_hd__o21bai_1 A1 A2 B1_N VGND VNB VPB VPWR Y
.ends

* Black-box entry subcircuit for sky130_fd_sc_hd__a41oi_4 abstract view
.subckt sky130_fd_sc_hd__a41oi_4 A1 A2 A3 A4 B1 VGND VNB VPB VPWR Y
.ends

* Black-box entry subcircuit for sky130_fd_sc_hd__and3_4 abstract view
.subckt sky130_fd_sc_hd__and3_4 A B C VGND VNB VPB VPWR X
.ends

* Black-box entry subcircuit for sky130_fd_sc_hd__nand3b_2 abstract view
.subckt sky130_fd_sc_hd__nand3b_2 A_N B C VGND VNB VPB VPWR Y
.ends

* Black-box entry subcircuit for sky130_fd_sc_hd__a31oi_1 abstract view
.subckt sky130_fd_sc_hd__a31oi_1 A1 A2 A3 B1 VGND VNB VPB VPWR Y
.ends

* Black-box entry subcircuit for sky130_fd_sc_hd__nand2_2 abstract view
.subckt sky130_fd_sc_hd__nand2_2 A B VGND VNB VPB VPWR Y
.ends

* Black-box entry subcircuit for sky130_fd_sc_hd__nor4_2 abstract view
.subckt sky130_fd_sc_hd__nor4_2 A B C D VGND VNB VPB VPWR Y
.ends

* Black-box entry subcircuit for sky130_fd_sc_hd__nand4b_1 abstract view
.subckt sky130_fd_sc_hd__nand4b_1 A_N B C D VGND VNB VPB VPWR Y
.ends

* Black-box entry subcircuit for sky130_fd_sc_hd__or4_4 abstract view
.subckt sky130_fd_sc_hd__or4_4 A B C D VGND VNB VPB VPWR X
.ends

* Black-box entry subcircuit for sky130_fd_sc_hd__o22ai_2 abstract view
.subckt sky130_fd_sc_hd__o22ai_2 A1 A2 B1 B2 VGND VNB VPB VPWR Y
.ends

.subckt mkQF100Fabric CLK RST_N cpu_ack_o cpu_adr_i[0] cpu_adr_i[10] cpu_adr_i[11]
+ cpu_adr_i[12] cpu_adr_i[13] cpu_adr_i[14] cpu_adr_i[15] cpu_adr_i[16] cpu_adr_i[17]
+ cpu_adr_i[18] cpu_adr_i[19] cpu_adr_i[1] cpu_adr_i[20] cpu_adr_i[21] cpu_adr_i[22]
+ cpu_adr_i[23] cpu_adr_i[24] cpu_adr_i[25] cpu_adr_i[26] cpu_adr_i[27] cpu_adr_i[28]
+ cpu_adr_i[29] cpu_adr_i[2] cpu_adr_i[30] cpu_adr_i[31] cpu_adr_i[3] cpu_adr_i[4]
+ cpu_adr_i[5] cpu_adr_i[6] cpu_adr_i[7] cpu_adr_i[8] cpu_adr_i[9] cpu_cyc_i cpu_dat_i[0]
+ cpu_dat_i[10] cpu_dat_i[11] cpu_dat_i[12] cpu_dat_i[13] cpu_dat_i[14] cpu_dat_i[15]
+ cpu_dat_i[16] cpu_dat_i[17] cpu_dat_i[18] cpu_dat_i[19] cpu_dat_i[1] cpu_dat_i[20]
+ cpu_dat_i[21] cpu_dat_i[22] cpu_dat_i[23] cpu_dat_i[24] cpu_dat_i[25] cpu_dat_i[26]
+ cpu_dat_i[27] cpu_dat_i[28] cpu_dat_i[29] cpu_dat_i[2] cpu_dat_i[30] cpu_dat_i[31]
+ cpu_dat_i[3] cpu_dat_i[4] cpu_dat_i[5] cpu_dat_i[6] cpu_dat_i[7] cpu_dat_i[8] cpu_dat_i[9]
+ cpu_dat_o[0] cpu_dat_o[10] cpu_dat_o[11] cpu_dat_o[12] cpu_dat_o[13] cpu_dat_o[14]
+ cpu_dat_o[15] cpu_dat_o[16] cpu_dat_o[17] cpu_dat_o[18] cpu_dat_o[19] cpu_dat_o[1]
+ cpu_dat_o[20] cpu_dat_o[21] cpu_dat_o[22] cpu_dat_o[23] cpu_dat_o[24] cpu_dat_o[25]
+ cpu_dat_o[26] cpu_dat_o[27] cpu_dat_o[28] cpu_dat_o[29] cpu_dat_o[2] cpu_dat_o[30]
+ cpu_dat_o[31] cpu_dat_o[3] cpu_dat_o[4] cpu_dat_o[5] cpu_dat_o[6] cpu_dat_o[7] cpu_dat_o[8]
+ cpu_dat_o[9] cpu_err_o cpu_rty_o cpu_sel_i[0] cpu_sel_i[1] cpu_sel_i[2] cpu_sel_i[3]
+ cpu_stb_i cpu_we_i gpio_ack_i gpio_adr_o[0] gpio_adr_o[10] gpio_adr_o[11] gpio_adr_o[12]
+ gpio_adr_o[13] gpio_adr_o[14] gpio_adr_o[15] gpio_adr_o[16] gpio_adr_o[17] gpio_adr_o[18]
+ gpio_adr_o[19] gpio_adr_o[1] gpio_adr_o[20] gpio_adr_o[21] gpio_adr_o[22] gpio_adr_o[23]
+ gpio_adr_o[24] gpio_adr_o[25] gpio_adr_o[26] gpio_adr_o[27] gpio_adr_o[28] gpio_adr_o[29]
+ gpio_adr_o[2] gpio_adr_o[30] gpio_adr_o[31] gpio_adr_o[3] gpio_adr_o[4] gpio_adr_o[5]
+ gpio_adr_o[6] gpio_adr_o[7] gpio_adr_o[8] gpio_adr_o[9] gpio_cyc_o gpio_dat_i[0]
+ gpio_dat_i[10] gpio_dat_i[11] gpio_dat_i[12] gpio_dat_i[13] gpio_dat_i[14] gpio_dat_i[15]
+ gpio_dat_i[16] gpio_dat_i[17] gpio_dat_i[18] gpio_dat_i[19] gpio_dat_i[1] gpio_dat_i[20]
+ gpio_dat_i[21] gpio_dat_i[22] gpio_dat_i[23] gpio_dat_i[24] gpio_dat_i[25] gpio_dat_i[26]
+ gpio_dat_i[27] gpio_dat_i[28] gpio_dat_i[29] gpio_dat_i[2] gpio_dat_i[30] gpio_dat_i[31]
+ gpio_dat_i[3] gpio_dat_i[4] gpio_dat_i[5] gpio_dat_i[6] gpio_dat_i[7] gpio_dat_i[8]
+ gpio_dat_i[9] gpio_dat_o[0] gpio_dat_o[10] gpio_dat_o[11] gpio_dat_o[12] gpio_dat_o[13]
+ gpio_dat_o[14] gpio_dat_o[15] gpio_dat_o[16] gpio_dat_o[17] gpio_dat_o[18] gpio_dat_o[19]
+ gpio_dat_o[1] gpio_dat_o[20] gpio_dat_o[21] gpio_dat_o[22] gpio_dat_o[23] gpio_dat_o[24]
+ gpio_dat_o[25] gpio_dat_o[26] gpio_dat_o[27] gpio_dat_o[28] gpio_dat_o[29] gpio_dat_o[2]
+ gpio_dat_o[30] gpio_dat_o[31] gpio_dat_o[3] gpio_dat_o[4] gpio_dat_o[5] gpio_dat_o[6]
+ gpio_dat_o[7] gpio_dat_o[8] gpio_dat_o[9] gpio_err_i gpio_rty_i gpio_sel_o[0] gpio_sel_o[1]
+ gpio_sel_o[2] gpio_sel_o[3] gpio_stb_o gpio_we_o ksc_ack_i ksc_adr_o[0] ksc_adr_o[10]
+ ksc_adr_o[11] ksc_adr_o[12] ksc_adr_o[13] ksc_adr_o[14] ksc_adr_o[15] ksc_adr_o[16]
+ ksc_adr_o[17] ksc_adr_o[18] ksc_adr_o[19] ksc_adr_o[1] ksc_adr_o[20] ksc_adr_o[21]
+ ksc_adr_o[22] ksc_adr_o[23] ksc_adr_o[24] ksc_adr_o[25] ksc_adr_o[26] ksc_adr_o[27]
+ ksc_adr_o[28] ksc_adr_o[29] ksc_adr_o[2] ksc_adr_o[30] ksc_adr_o[31] ksc_adr_o[3]
+ ksc_adr_o[4] ksc_adr_o[5] ksc_adr_o[6] ksc_adr_o[7] ksc_adr_o[8] ksc_adr_o[9] ksc_cyc_o
+ ksc_dat_i[0] ksc_dat_i[10] ksc_dat_i[11] ksc_dat_i[12] ksc_dat_i[13] ksc_dat_i[14]
+ ksc_dat_i[15] ksc_dat_i[16] ksc_dat_i[17] ksc_dat_i[18] ksc_dat_i[19] ksc_dat_i[1]
+ ksc_dat_i[20] ksc_dat_i[21] ksc_dat_i[22] ksc_dat_i[23] ksc_dat_i[24] ksc_dat_i[25]
+ ksc_dat_i[26] ksc_dat_i[27] ksc_dat_i[28] ksc_dat_i[29] ksc_dat_i[2] ksc_dat_i[30]
+ ksc_dat_i[31] ksc_dat_i[3] ksc_dat_i[4] ksc_dat_i[5] ksc_dat_i[6] ksc_dat_i[7] ksc_dat_i[8]
+ ksc_dat_i[9] ksc_dat_o[0] ksc_dat_o[10] ksc_dat_o[11] ksc_dat_o[12] ksc_dat_o[13]
+ ksc_dat_o[14] ksc_dat_o[15] ksc_dat_o[16] ksc_dat_o[17] ksc_dat_o[18] ksc_dat_o[19]
+ ksc_dat_o[1] ksc_dat_o[20] ksc_dat_o[21] ksc_dat_o[22] ksc_dat_o[23] ksc_dat_o[24]
+ ksc_dat_o[25] ksc_dat_o[26] ksc_dat_o[27] ksc_dat_o[28] ksc_dat_o[29] ksc_dat_o[2]
+ ksc_dat_o[30] ksc_dat_o[31] ksc_dat_o[3] ksc_dat_o[4] ksc_dat_o[5] ksc_dat_o[6]
+ ksc_dat_o[7] ksc_dat_o[8] ksc_dat_o[9] ksc_err_i ksc_rty_i ksc_sel_o[0] ksc_sel_o[1]
+ ksc_sel_o[2] ksc_sel_o[3] ksc_stb_o ksc_we_o spi_ack_i spi_adr_o[0] spi_adr_o[10]
+ spi_adr_o[11] spi_adr_o[12] spi_adr_o[13] spi_adr_o[14] spi_adr_o[15] spi_adr_o[16]
+ spi_adr_o[17] spi_adr_o[18] spi_adr_o[19] spi_adr_o[1] spi_adr_o[20] spi_adr_o[21]
+ spi_adr_o[22] spi_adr_o[23] spi_adr_o[24] spi_adr_o[25] spi_adr_o[26] spi_adr_o[27]
+ spi_adr_o[28] spi_adr_o[29] spi_adr_o[2] spi_adr_o[30] spi_adr_o[31] spi_adr_o[3]
+ spi_adr_o[4] spi_adr_o[5] spi_adr_o[6] spi_adr_o[7] spi_adr_o[8] spi_adr_o[9] spi_cyc_o
+ spi_dat_i[0] spi_dat_i[10] spi_dat_i[11] spi_dat_i[12] spi_dat_i[13] spi_dat_i[14]
+ spi_dat_i[15] spi_dat_i[16] spi_dat_i[17] spi_dat_i[18] spi_dat_i[19] spi_dat_i[1]
+ spi_dat_i[20] spi_dat_i[21] spi_dat_i[22] spi_dat_i[23] spi_dat_i[24] spi_dat_i[25]
+ spi_dat_i[26] spi_dat_i[27] spi_dat_i[28] spi_dat_i[29] spi_dat_i[2] spi_dat_i[30]
+ spi_dat_i[31] spi_dat_i[3] spi_dat_i[4] spi_dat_i[5] spi_dat_i[6] spi_dat_i[7] spi_dat_i[8]
+ spi_dat_i[9] spi_dat_o[0] spi_dat_o[10] spi_dat_o[11] spi_dat_o[12] spi_dat_o[13]
+ spi_dat_o[14] spi_dat_o[15] spi_dat_o[16] spi_dat_o[17] spi_dat_o[18] spi_dat_o[19]
+ spi_dat_o[1] spi_dat_o[20] spi_dat_o[21] spi_dat_o[22] spi_dat_o[23] spi_dat_o[24]
+ spi_dat_o[25] spi_dat_o[26] spi_dat_o[27] spi_dat_o[28] spi_dat_o[29] spi_dat_o[2]
+ spi_dat_o[30] spi_dat_o[31] spi_dat_o[3] spi_dat_o[4] spi_dat_o[5] spi_dat_o[6]
+ spi_dat_o[7] spi_dat_o[8] spi_dat_o[9] spi_err_i spi_rty_i spi_sel_o[0] spi_sel_o[1]
+ spi_sel_o[2] spi_sel_o[3] spi_stb_o spi_we_o vccd1 vssd1
XANTENNA__3140__A1 _5401_/Q vssd1 vccd1 vccd1 vssd1 sky130_ef_sc_hd__fakediode_2
XANTENNA__4935__A _4935_/A vssd1 vccd1 vccd1 vssd1 sky130_ef_sc_hd__fakediode_2
XFILLER_3_1711 vssd1 vssd1 vccd1 vccd1 sky130_fd_sc_hd__fill_1
X_3155_ _5719_/Q input43/X _3168_/S vssd1 vssd1 vccd1 vccd1 _5172_/C sky130_fd_sc_hd__mux2_2
XFILLER_27_417 vssd1 vssd1 vccd1 vccd1 sky130_fd_sc_hd__decap_12
XFILLER_23_1661 vssd1 vssd1 vccd1 vccd1 sky130_fd_sc_hd__decap_12
XANTENNA__3691__A2 _4968_/A vssd1 vccd1 vccd1 vssd1 sky130_ef_sc_hd__fakediode_2
XFILLER_94_383 vssd1 vssd1 vccd1 vccd1 sky130_fd_sc_hd__decap_4
X_3086_ _4316_/A _5392_/Q _3230_/S vssd1 vssd1 vccd1 vccd1 _4473_/C sky130_fd_sc_hd__mux2_1
XANTENNA__4654__B _4654_/B vssd1 vccd1 vccd1 vssd1 sky130_ef_sc_hd__fakediode_2
XFILLER_39_1101 vssd1 vssd1 vccd1 vccd1 sky130_fd_sc_hd__decap_12
XFILLER_36_973 vssd1 vssd1 vccd1 vccd1 sky130_fd_sc_hd__decap_6
XFILLER_35_461 vssd1 vssd1 vccd1 vccd1 sky130_fd_sc_hd__decap_12
XANTENNA__3050__S _3102_/S vssd1 vccd1 vccd1 vssd1 sky130_ef_sc_hd__fakediode_2
XFILLER_51_921 vssd1 vssd1 vccd1 vccd1 sky130_fd_sc_hd__decap_12
XANTENNA__4640__A1 _5464_/Q vssd1 vccd1 vccd1 vssd1 sky130_ef_sc_hd__fakediode_2
XFILLER_39_1145 vssd1 vssd1 vccd1 vccd1 sky130_fd_sc_hd__decap_12
XFILLER_35_1009 vssd1 vssd1 vccd1 vccd1 sky130_fd_sc_hd__decap_12
XFILLER_51_965 vssd1 vssd1 vccd1 vccd1 sky130_fd_sc_hd__decap_12
XFILLER_22_133 vssd1 vssd1 vccd1 vccd1 sky130_fd_sc_hd__decap_6
XFILLER_39_1189 vssd1 vssd1 vccd1 vccd1 sky130_fd_sc_hd__decap_12
XANTENNA__4670__A _4778_/C vssd1 vccd1 vccd1 vssd1 sky130_ef_sc_hd__fakediode_2
XFILLER_50_475 vssd1 vssd1 vccd1 vccd1 sky130_fd_sc_hd__fill_1
XFILLER_91_1372 vssd1 vssd1 vccd1 vccd1 sky130_fd_sc_hd__decap_4
X_3988_ _5068_/A vssd1 vssd1 vccd1 vccd1 _4127_/A sky130_fd_sc_hd__clkbuf_1
XFILLER_22_177 vssd1 vssd1 vccd1 vccd1 sky130_fd_sc_hd__decap_12
XFILLER_91_1394 vssd1 vssd1 vccd1 vccd1 sky130_fd_sc_hd__fill_1
X_5727_ _5737_/CLK _5727_/D vssd1 vssd1 vccd1 vccd1 _5727_/Q sky130_fd_sc_hd__dfxtp_1
XANTENNA__2902__B _2902_/B vssd1 vccd1 vccd1 vssd1 sky130_ef_sc_hd__fakediode_2
X_2939_ _2886_/Y _3455_/A _2938_/Y vssd1 vssd1 vccd1 vccd1 _3549_/A sky130_fd_sc_hd__o21ai_4
XANTENNA__3286__A _3292_/A vssd1 vccd1 vccd1 vssd1 sky130_ef_sc_hd__fakediode_2
XFILLER_30_1621 vssd1 vssd1 vccd1 vccd1 sky130_fd_sc_hd__decap_12
X_5658_ _5659_/CLK _5658_/D vssd1 vssd1 vccd1 vccd1 _5658_/Q sky130_fd_sc_hd__dfxtp_1
X_4609_ _4609_/A vssd1 vssd1 vccd1 vccd1 _5447_/D sky130_fd_sc_hd__clkbuf_1
XFILLER_30_1665 vssd1 vssd1 vccd1 vccd1 sky130_fd_sc_hd__decap_12
XFILLER_50_1091 vssd1 vssd1 vccd1 vccd1 sky130_fd_sc_hd__fill_1
X_5589_ _5589_/CLK _5589_/D vssd1 vssd1 vccd1 vccd1 _5589_/Q sky130_fd_sc_hd__dfxtp_1
XANTENNA__2706__A1 _2700_/X vssd1 vccd1 vccd1 vssd1 sky130_ef_sc_hd__fakediode_2
XFILLER_46_1105 vssd1 vssd1 vccd1 vccd1 sky130_fd_sc_hd__decap_12
XFILLER_7_7 vssd1 vssd1 vccd1 vccd1 sky130_fd_sc_hd__decap_4
XANTENNA__5651__D _5651_/D vssd1 vccd1 vccd1 vssd1 sky130_ef_sc_hd__fakediode_2
XFILLER_46_1149 vssd1 vssd1 vccd1 vccd1 sky130_fd_sc_hd__decap_12
XANTENNA__3225__S _3235_/S vssd1 vccd1 vccd1 vssd1 sky130_ef_sc_hd__fakediode_2
XFILLER_78_829 vssd1 vssd1 vccd1 vccd1 sky130_fd_sc_hd__decap_4
XANTENNA__4548__C _4569_/A vssd1 vccd1 vccd1 vssd1 sky130_ef_sc_hd__fakediode_2
XFILLER_77_48 vssd1 vssd1 vccd1 vccd1 sky130_fd_sc_hd__decap_4
XANTENNA__5006__A _5006_/A vssd1 vccd1 vccd1 vssd1 sky130_ef_sc_hd__fakediode_2
XFILLER_8_1633 vssd1 vssd1 vccd1 vccd1 sky130_fd_sc_hd__decap_12
XFILLER_8_1677 vssd1 vssd1 vccd1 vccd1 sky130_fd_sc_hd__decap_12
XANTENNA__3131__A1 input39/X vssd1 vccd1 vccd1 vssd1 sky130_ef_sc_hd__fakediode_2
XANTENNA__5503__CLK _5538_/CLK vssd1 vccd1 vccd1 vssd1 sky130_ef_sc_hd__fakediode_2
XFILLER_92_309 vssd1 vssd1 vccd1 vccd1 sky130_fd_sc_hd__fill_1
XTAP_3202 vssd1 vccd1 sky130_fd_sc_hd__tapvpwrvgnd_1
XFILLER_58_575 vssd1 vssd1 vccd1 vccd1 sky130_fd_sc_hd__decap_3
XTAP_3213 vssd1 vccd1 sky130_fd_sc_hd__tapvpwrvgnd_1
XFILLER_93_14 vssd1 vssd1 vccd1 vccd1 sky130_fd_sc_hd__decap_4
XTAP_3224 vssd1 vccd1 sky130_fd_sc_hd__tapvpwrvgnd_1
XFILLER_46_737 vssd1 vssd1 vccd1 vccd1 sky130_fd_sc_hd__decap_12
XFILLER_98_1548 vssd1 vssd1 vccd1 vccd1 sky130_fd_sc_hd__decap_4
XTAP_3235 vssd1 vccd1 sky130_fd_sc_hd__tapvpwrvgnd_1
XFILLER_58_597 vssd1 vssd1 vccd1 vccd1 sky130_fd_sc_hd__decap_4
XFILLER_100_694 vssd1 vssd1 vccd1 vccd1 sky130_fd_sc_hd__decap_4
XANTENNA_input127_A ksc_dat_i[26] vssd1 vccd1 vccd1 vssd1 sky130_ef_sc_hd__fakediode_2
XFILLER_45_225 vssd1 vssd1 vccd1 vccd1 sky130_fd_sc_hd__decap_12
XTAP_2501 vssd1 vccd1 sky130_fd_sc_hd__tapvpwrvgnd_1
XTAP_3246 vssd1 vccd1 sky130_fd_sc_hd__tapvpwrvgnd_1
XTAP_3257 vssd1 vccd1 sky130_fd_sc_hd__tapvpwrvgnd_1
XFILLER_73_556 vssd1 vssd1 vccd1 vccd1 sky130_fd_sc_hd__decap_4
XTAP_2512 vssd1 vccd1 sky130_fd_sc_hd__tapvpwrvgnd_1
XTAP_3268 vssd1 vccd1 sky130_fd_sc_hd__tapvpwrvgnd_1
XFILLER_27_951 vssd1 vssd1 vccd1 vccd1 sky130_fd_sc_hd__fill_1
XTAP_2523 vssd1 vccd1 sky130_fd_sc_hd__tapvpwrvgnd_1
XTAP_3279 vssd1 vccd1 sky130_fd_sc_hd__tapvpwrvgnd_1
XTAP_2534 vssd1 vccd1 sky130_fd_sc_hd__tapvpwrvgnd_1
XFILLER_26_41 vssd1 vssd1 vccd1 vccd1 sky130_fd_sc_hd__decap_12
XTAP_1800 vssd1 vccd1 sky130_fd_sc_hd__tapvpwrvgnd_1
XFILLER_57_1201 vssd1 vssd1 vccd1 vccd1 sky130_fd_sc_hd__decap_12
XTAP_2545 vssd1 vccd1 sky130_fd_sc_hd__tapvpwrvgnd_1
XTAP_1811 vssd1 vccd1 sky130_fd_sc_hd__tapvpwrvgnd_1
XTAP_2556 vssd1 vccd1 sky130_fd_sc_hd__tapvpwrvgnd_1
XFILLER_14_601 vssd1 vssd1 vccd1 vccd1 sky130_fd_sc_hd__decap_12
XTAP_1822 vssd1 vccd1 sky130_fd_sc_hd__tapvpwrvgnd_1
XANTENNA__4631__A1 _3756_/X vssd1 vccd1 vccd1 vssd1 sky130_ef_sc_hd__fakediode_2
XANTENNA__4283__C _4283_/C vssd1 vccd1 vccd1 vssd1 sky130_ef_sc_hd__fakediode_2
XTAP_2567 vssd1 vccd1 sky130_fd_sc_hd__tapvpwrvgnd_1
XANTENNA__4631__B2 _3851_/X vssd1 vccd1 vccd1 vssd1 sky130_ef_sc_hd__fakediode_2
XFILLER_92_1125 vssd1 vssd1 vccd1 vccd1 sky130_fd_sc_hd__fill_2
XANTENNA__5653__CLK _5659_/CLK vssd1 vccd1 vccd1 vssd1 sky130_ef_sc_hd__fakediode_2
XTAP_1833 vssd1 vccd1 sky130_fd_sc_hd__tapvpwrvgnd_1
XFILLER_57_1245 vssd1 vssd1 vccd1 vccd1 sky130_fd_sc_hd__decap_12
XTAP_2578 vssd1 vccd1 sky130_fd_sc_hd__tapvpwrvgnd_1
XFILLER_26_85 vssd1 vssd1 vccd1 vccd1 sky130_fd_sc_hd__decap_12
XTAP_1844 vssd1 vccd1 sky130_fd_sc_hd__tapvpwrvgnd_1
XTAP_2589 vssd1 vccd1 sky130_fd_sc_hd__tapvpwrvgnd_1
XFILLER_14_645 vssd1 vssd1 vccd1 vccd1 sky130_fd_sc_hd__decap_12