* NGSPICE file created from mkQF100Fabric.ext - technology: sky130A

* Black-box entry subcircuit for sky130_ef_sc_hd__fakediode_2 abstract view
.subckt sky130_ef_sc_hd__fakediode_2 DIODE VGND VPWR VPB VNB
.ends

* Black-box entry subcircuit for sky130_fd_sc_hd__tapvpwrvgnd_1 abstract view
.subckt sky130_fd_sc_hd__tapvpwrvgnd_1 VGND VPWR
.ends

* Black-box entry subcircuit for sky130_fd_sc_hd__a2bb2o_1 abstract view
.subckt sky130_fd_sc_hd__a2bb2o_1 A1_N A2_N B1 B2 VGND VNB VPB VPWR X
.ends

* Black-box entry subcircuit for sky130_fd_sc_hd__decap_4 abstract view
.subckt sky130_fd_sc_hd__decap_4 VGND VNB VPB VPWR
.ends

* Black-box entry subcircuit for sky130_fd_sc_hd__decap_12 abstract view
.subckt sky130_fd_sc_hd__decap_12 VGND VNB VPB VPWR
.ends

* Black-box entry subcircuit for sky130_fd_sc_hd__fill_1 abstract view
.subckt sky130_fd_sc_hd__fill_1 VGND VNB VPB VPWR
.ends

* Black-box entry subcircuit for sky130_fd_sc_hd__dfxtp_1 abstract view
.subckt sky130_fd_sc_hd__dfxtp_1 CLK D VGND VNB VPB VPWR Q
.ends

* Black-box entry subcircuit for sky130_fd_sc_hd__decap_8 abstract view
.subckt sky130_fd_sc_hd__decap_8 VGND VNB VPB VPWR
.ends

* Black-box entry subcircuit for sky130_fd_sc_hd__decap_6 abstract view
.subckt sky130_fd_sc_hd__decap_6 VGND VNB VPB VPWR
.ends

* Black-box entry subcircuit for sky130_fd_sc_hd__clkbuf_16 abstract view
.subckt sky130_fd_sc_hd__clkbuf_16 A VGND VNB VPB VPWR X
.ends

* Black-box entry subcircuit for sky130_fd_sc_hd__decap_3 abstract view
.subckt sky130_fd_sc_hd__decap_3 VGND VNB VPB VPWR
.ends

* Black-box entry subcircuit for sky130_fd_sc_hd__fill_2 abstract view
.subckt sky130_fd_sc_hd__fill_2 VGND VNB VPB VPWR
.ends

* Black-box entry subcircuit for sky130_fd_sc_hd__a21o_1 abstract view
.subckt sky130_fd_sc_hd__a21o_1 A1 A2 B1 VGND VNB VPB VPWR X
.ends

* Black-box entry subcircuit for sky130_fd_sc_hd__buf_2 abstract view
.subckt sky130_fd_sc_hd__buf_2 A VGND VNB VPB VPWR X
.ends

* Black-box entry subcircuit for sky130_fd_sc_hd__nor2_1 abstract view
.subckt sky130_fd_sc_hd__nor2_1 A B VGND VNB VPB VPWR Y
.ends

* Black-box entry subcircuit for sky130_fd_sc_hd__o2111ai_2 abstract view
.subckt sky130_fd_sc_hd__o2111ai_2 A1 A2 B1 C1 D1 VGND VNB VPB VPWR Y
.ends

* Black-box entry subcircuit for sky130_fd_sc_hd__a21oi_4 abstract view
.subckt sky130_fd_sc_hd__a21oi_4 A1 A2 B1 VGND VNB VPB VPWR Y
.ends

* Black-box entry subcircuit for sky130_fd_sc_hd__o211ai_2 abstract view
.subckt sky130_fd_sc_hd__o211ai_2 A1 A2 B1 C1 VGND VNB VPB VPWR Y
.ends

* Black-box entry subcircuit for sky130_fd_sc_hd__o211a_1 abstract view
.subckt sky130_fd_sc_hd__o211a_1 A1 A2 B1 C1 VGND VNB VPB VPWR X
.ends

* Black-box entry subcircuit for sky130_fd_sc_hd__clkbuf_1 abstract view
.subckt sky130_fd_sc_hd__clkbuf_1 A VGND VNB VPB VPWR X
.ends

* Black-box entry subcircuit for sky130_fd_sc_hd__o21ai_2 abstract view
.subckt sky130_fd_sc_hd__o21ai_2 A1 A2 B1 VGND VNB VPB VPWR Y
.ends

* Black-box entry subcircuit for sky130_fd_sc_hd__nand2_1 abstract view
.subckt sky130_fd_sc_hd__nand2_1 A B VGND VNB VPB VPWR Y
.ends

* Black-box entry subcircuit for sky130_fd_sc_hd__nand4_4 abstract view
.subckt sky130_fd_sc_hd__nand4_4 A B C D VGND VNB VPB VPWR Y
.ends

* Black-box entry subcircuit for sky130_fd_sc_hd__o21ai_1 abstract view
.subckt sky130_fd_sc_hd__o21ai_1 A1 A2 B1 VGND VNB VPB VPWR Y
.ends

* Black-box entry subcircuit for sky130_fd_sc_hd__mux2_1 abstract view
.subckt sky130_fd_sc_hd__mux2_1 A0 A1 S VGND VNB VPB VPWR X
.ends

* Black-box entry subcircuit for sky130_fd_sc_hd__and3_1 abstract view
.subckt sky130_fd_sc_hd__and3_1 A B C VGND VNB VPB VPWR X
.ends

* Black-box entry subcircuit for sky130_fd_sc_hd__or2_1 abstract view
.subckt sky130_fd_sc_hd__or2_1 A B VGND VNB VPB VPWR X
.ends

* Black-box entry subcircuit for sky130_fd_sc_hd__a21oi_2 abstract view
.subckt sky130_fd_sc_hd__a21oi_2 A1 A2 B1 VGND VNB VPB VPWR Y
.ends

* Black-box entry subcircuit for sky130_fd_sc_hd__o21a_1 abstract view
.subckt sky130_fd_sc_hd__o21a_1 A1 A2 B1 VGND VNB VPB VPWR X
.ends

* Black-box entry subcircuit for sky130_fd_sc_hd__buf_4 abstract view
.subckt sky130_fd_sc_hd__buf_4 A VGND VNB VPB VPWR X
.ends

* Black-box entry subcircuit for sky130_fd_sc_hd__a21oi_1 abstract view
.subckt sky130_fd_sc_hd__a21oi_1 A1 A2 B1 VGND VNB VPB VPWR Y
.ends

* Black-box entry subcircuit for sky130_fd_sc_hd__clkbuf_2 abstract view
.subckt sky130_fd_sc_hd__clkbuf_2 A VGND VNB VPB VPWR X
.ends

* Black-box entry subcircuit for sky130_fd_sc_hd__nand4b_1 abstract view
.subckt sky130_fd_sc_hd__nand4b_1 A_N B C D VGND VNB VPB VPWR Y
.ends

* Black-box entry subcircuit for sky130_fd_sc_hd__o311a_1 abstract view
.subckt sky130_fd_sc_hd__o311a_1 A1 A2 A3 B1 C1 VGND VNB VPB VPWR X
.ends

* Black-box entry subcircuit for sky130_fd_sc_hd__and2_1 abstract view
.subckt sky130_fd_sc_hd__and2_1 A B VGND VNB VPB VPWR X
.ends

* Black-box entry subcircuit for sky130_fd_sc_hd__or3b_1 abstract view
.subckt sky130_fd_sc_hd__or3b_1 A B C_N VGND VNB VPB VPWR X
.ends

* Black-box entry subcircuit for sky130_fd_sc_hd__or3_1 abstract view
.subckt sky130_fd_sc_hd__or3_1 A B C VGND VNB VPB VPWR X
.ends

* Black-box entry subcircuit for sky130_fd_sc_hd__clkbuf_4 abstract view
.subckt sky130_fd_sc_hd__clkbuf_4 A VGND VNB VPB VPWR X
.ends

* Black-box entry subcircuit for sky130_fd_sc_hd__dlymetal6s2s_1 abstract view
.subckt sky130_fd_sc_hd__dlymetal6s2s_1 A VGND VNB VPB VPWR X
.ends

* Black-box entry subcircuit for sky130_fd_sc_hd__a2bb2o_2 abstract view
.subckt sky130_fd_sc_hd__a2bb2o_2 A1_N A2_N B1 B2 VGND VNB VPB VPWR X
.ends

* Black-box entry subcircuit for sky130_fd_sc_hd__o21bai_1 abstract view
.subckt sky130_fd_sc_hd__o21bai_1 A1 A2 B1_N VGND VNB VPB VPWR Y
.ends

* Black-box entry subcircuit for sky130_fd_sc_hd__a21o_4 abstract view
.subckt sky130_fd_sc_hd__a21o_4 A1 A2 B1 VGND VNB VPB VPWR X
.ends

* Black-box entry subcircuit for sky130_fd_sc_hd__conb_1 abstract view
.subckt sky130_fd_sc_hd__conb_1 VGND VNB VPB VPWR HI LO
.ends

* Black-box entry subcircuit for sky130_fd_sc_hd__o21ba_1 abstract view
.subckt sky130_fd_sc_hd__o21ba_1 A1 A2 B1_N VGND VNB VPB VPWR X
.ends

* Black-box entry subcircuit for sky130_fd_sc_hd__o21a_2 abstract view
.subckt sky130_fd_sc_hd__o21a_2 A1 A2 B1 VGND VNB VPB VPWR X
.ends

* Black-box entry subcircuit for sky130_fd_sc_hd__clkinv_2 abstract view
.subckt sky130_fd_sc_hd__clkinv_2 A VGND VNB VPB VPWR Y
.ends

* Black-box entry subcircuit for sky130_fd_sc_hd__o2111a_1 abstract view
.subckt sky130_fd_sc_hd__o2111a_1 A1 A2 B1 C1 D1 VGND VNB VPB VPWR X
.ends

* Black-box entry subcircuit for sky130_fd_sc_hd__o21a_4 abstract view
.subckt sky130_fd_sc_hd__o21a_4 A1 A2 B1 VGND VNB VPB VPWR X
.ends

* Black-box entry subcircuit for sky130_fd_sc_hd__nor3b_4 abstract view
.subckt sky130_fd_sc_hd__nor3b_4 A B C_N VGND VNB VPB VPWR Y
.ends

* Black-box entry subcircuit for sky130_fd_sc_hd__or2_4 abstract view
.subckt sky130_fd_sc_hd__or2_4 A B VGND VNB VPB VPWR X
.ends

* Black-box entry subcircuit for sky130_fd_sc_hd__nand3_1 abstract view
.subckt sky130_fd_sc_hd__nand3_1 A B C VGND VNB VPB VPWR Y
.ends

* Black-box entry subcircuit for sky130_fd_sc_hd__o211ai_1 abstract view
.subckt sky130_fd_sc_hd__o211ai_1 A1 A2 B1 C1 VGND VNB VPB VPWR Y
.ends

* Black-box entry subcircuit for sky130_fd_sc_hd__o22ai_2 abstract view
.subckt sky130_fd_sc_hd__o22ai_2 A1 A2 B1 B2 VGND VNB VPB VPWR Y
.ends

* Black-box entry subcircuit for sky130_fd_sc_hd__o22ai_1 abstract view
.subckt sky130_fd_sc_hd__o22ai_1 A1 A2 B1 B2 VGND VNB VPB VPWR Y
.ends

* Black-box entry subcircuit for sky130_fd_sc_hd__a31o_1 abstract view
.subckt sky130_fd_sc_hd__a31o_1 A1 A2 A3 B1 VGND VNB VPB VPWR X
.ends

* Black-box entry subcircuit for sky130_fd_sc_hd__nor2_2 abstract view
.subckt sky130_fd_sc_hd__nor2_2 A B VGND VNB VPB VPWR Y
.ends

* Black-box entry subcircuit for sky130_fd_sc_hd__o31a_2 abstract view
.subckt sky130_fd_sc_hd__o31a_2 A1 A2 A3 B1 VGND VNB VPB VPWR X
.ends

* Black-box entry subcircuit for sky130_fd_sc_hd__o21ai_4 abstract view
.subckt sky130_fd_sc_hd__o21ai_4 A1 A2 B1 VGND VNB VPB VPWR Y
.ends

* Black-box entry subcircuit for sky130_fd_sc_hd__inv_2 abstract view
.subckt sky130_fd_sc_hd__inv_2 A VGND VNB VPB VPWR Y
.ends

* Black-box entry subcircuit for sky130_fd_sc_hd__a2bb2o_4 abstract view
.subckt sky130_fd_sc_hd__a2bb2o_4 A1_N A2_N B1 B2 VGND VNB VPB VPWR X
.ends

* Black-box entry subcircuit for sky130_fd_sc_hd__nor3_1 abstract view
.subckt sky130_fd_sc_hd__nor3_1 A B C VGND VNB VPB VPWR Y
.ends

* Black-box entry subcircuit for sky130_fd_sc_hd__o211ai_4 abstract view
.subckt sky130_fd_sc_hd__o211ai_4 A1 A2 B1 C1 VGND VNB VPB VPWR Y
.ends

* Black-box entry subcircuit for sky130_fd_sc_hd__o31a_4 abstract view
.subckt sky130_fd_sc_hd__o31a_4 A1 A2 A3 B1 VGND VNB VPB VPWR X
.ends

* Black-box entry subcircuit for sky130_fd_sc_hd__nand4b_2 abstract view
.subckt sky130_fd_sc_hd__nand4b_2 A_N B C D VGND VNB VPB VPWR Y
.ends

* Black-box entry subcircuit for sky130_fd_sc_hd__nand4_2 abstract view
.subckt sky130_fd_sc_hd__nand4_2 A B C D VGND VNB VPB VPWR Y
.ends

* Black-box entry subcircuit for sky130_fd_sc_hd__nor3_4 abstract view
.subckt sky130_fd_sc_hd__nor3_4 A B C VGND VNB VPB VPWR Y
.ends

* Black-box entry subcircuit for sky130_fd_sc_hd__o2111ai_4 abstract view
.subckt sky130_fd_sc_hd__o2111ai_4 A1 A2 B1 C1 D1 VGND VNB VPB VPWR Y
.ends

* Black-box entry subcircuit for sky130_fd_sc_hd__or3_2 abstract view
.subckt sky130_fd_sc_hd__or3_2 A B C VGND VNB VPB VPWR X
.ends

* Black-box entry subcircuit for sky130_fd_sc_hd__a311o_1 abstract view
.subckt sky130_fd_sc_hd__a311o_1 A1 A2 A3 B1 C1 VGND VNB VPB VPWR X
.ends

* Black-box entry subcircuit for sky130_fd_sc_hd__nand3_4 abstract view
.subckt sky130_fd_sc_hd__nand3_4 A B C VGND VNB VPB VPWR Y
.ends

* Black-box entry subcircuit for sky130_fd_sc_hd__nand4_1 abstract view
.subckt sky130_fd_sc_hd__nand4_1 A B C D VGND VNB VPB VPWR Y
.ends

* Black-box entry subcircuit for sky130_fd_sc_hd__and4_2 abstract view
.subckt sky130_fd_sc_hd__and4_2 A B C D VGND VNB VPB VPWR X
.ends

* Black-box entry subcircuit for sky130_fd_sc_hd__nand3_2 abstract view
.subckt sky130_fd_sc_hd__nand3_2 A B C VGND VNB VPB VPWR Y
.ends

* Black-box entry subcircuit for sky130_fd_sc_hd__nand2_2 abstract view
.subckt sky130_fd_sc_hd__nand2_2 A B VGND VNB VPB VPWR Y
.ends

* Black-box entry subcircuit for sky130_fd_sc_hd__and3_2 abstract view
.subckt sky130_fd_sc_hd__and3_2 A B C VGND VNB VPB VPWR X
.ends

* Black-box entry subcircuit for sky130_fd_sc_hd__a22oi_1 abstract view
.subckt sky130_fd_sc_hd__a22oi_1 A1 A2 B1 B2 VGND VNB VPB VPWR Y
.ends

* Black-box entry subcircuit for sky130_fd_sc_hd__nand3b_4 abstract view
.subckt sky130_fd_sc_hd__nand3b_4 A_N B C VGND VNB VPB VPWR Y
.ends

* Black-box entry subcircuit for sky130_fd_sc_hd__a211o_1 abstract view
.subckt sky130_fd_sc_hd__a211o_1 A1 A2 B1 C1 VGND VNB VPB VPWR X
.ends

* Black-box entry subcircuit for sky130_fd_sc_hd__nand4b_4 abstract view
.subckt sky130_fd_sc_hd__nand4b_4 A_N B C D VGND VNB VPB VPWR Y
.ends

* Black-box entry subcircuit for sky130_fd_sc_hd__nor2_4 abstract view
.subckt sky130_fd_sc_hd__nor2_4 A B VGND VNB VPB VPWR Y
.ends

* Black-box entry subcircuit for sky130_fd_sc_hd__nand2_4 abstract view
.subckt sky130_fd_sc_hd__nand2_4 A B VGND VNB VPB VPWR Y
.ends

* Black-box entry subcircuit for sky130_fd_sc_hd__mux2_2 abstract view
.subckt sky130_fd_sc_hd__mux2_2 A0 A1 S VGND VNB VPB VPWR X
.ends

* Black-box entry subcircuit for sky130_fd_sc_hd__o31ai_4 abstract view
.subckt sky130_fd_sc_hd__o31ai_4 A1 A2 A3 B1 VGND VNB VPB VPWR Y
.ends

* Black-box entry subcircuit for sky130_fd_sc_hd__a22oi_2 abstract view
.subckt sky130_fd_sc_hd__a22oi_2 A1 A2 B1 B2 VGND VNB VPB VPWR Y
.ends

* Black-box entry subcircuit for sky130_fd_sc_hd__dfxtp_2 abstract view
.subckt sky130_fd_sc_hd__dfxtp_2 CLK D VGND VNB VPB VPWR Q
.ends

* Black-box entry subcircuit for sky130_fd_sc_hd__o211a_2 abstract view
.subckt sky130_fd_sc_hd__o211a_2 A1 A2 B1 C1 VGND VNB VPB VPWR X
.ends

* Black-box entry subcircuit for sky130_fd_sc_hd__o21bai_2 abstract view
.subckt sky130_fd_sc_hd__o21bai_2 A1 A2 B1_N VGND VNB VPB VPWR Y
.ends

* Black-box entry subcircuit for sky130_fd_sc_hd__and4_1 abstract view
.subckt sky130_fd_sc_hd__and4_1 A B C D VGND VNB VPB VPWR X
.ends

* Black-box entry subcircuit for sky130_fd_sc_hd__a21o_2 abstract view
.subckt sky130_fd_sc_hd__a21o_2 A1 A2 B1 VGND VNB VPB VPWR X
.ends

* Black-box entry subcircuit for sky130_fd_sc_hd__a22oi_4 abstract view
.subckt sky130_fd_sc_hd__a22oi_4 A1 A2 B1 B2 VGND VNB VPB VPWR Y
.ends

* Black-box entry subcircuit for sky130_fd_sc_hd__buf_6 abstract view
.subckt sky130_fd_sc_hd__buf_6 A VGND VNB VPB VPWR X
.ends

* Black-box entry subcircuit for sky130_fd_sc_hd__o2bb2a_1 abstract view
.subckt sky130_fd_sc_hd__o2bb2a_1 A1_N A2_N B1 B2 VGND VNB VPB VPWR X
.ends

* Black-box entry subcircuit for sky130_fd_sc_hd__o221a_4 abstract view
.subckt sky130_fd_sc_hd__o221a_4 A1 A2 B1 B2 C1 VGND VNB VPB VPWR X
.ends

* Black-box entry subcircuit for sky130_fd_sc_hd__o211a_4 abstract view
.subckt sky130_fd_sc_hd__o211a_4 A1 A2 B1 C1 VGND VNB VPB VPWR X
.ends

* Black-box entry subcircuit for sky130_fd_sc_hd__inv_4 abstract view
.subckt sky130_fd_sc_hd__inv_4 A VGND VNB VPB VPWR Y
.ends

* Black-box entry subcircuit for sky130_fd_sc_hd__o21bai_4 abstract view
.subckt sky130_fd_sc_hd__o21bai_4 A1 A2 B1_N VGND VNB VPB VPWR Y
.ends

* Black-box entry subcircuit for sky130_fd_sc_hd__a31oi_4 abstract view
.subckt sky130_fd_sc_hd__a31oi_4 A1 A2 A3 B1 VGND VNB VPB VPWR Y
.ends

* Black-box entry subcircuit for sky130_fd_sc_hd__nor4_4 abstract view
.subckt sky130_fd_sc_hd__nor4_4 A B C D VGND VNB VPB VPWR Y
.ends

* Black-box entry subcircuit for sky130_fd_sc_hd__o2111ai_1 abstract view
.subckt sky130_fd_sc_hd__o2111ai_1 A1 A2 B1 C1 D1 VGND VNB VPB VPWR Y
.ends

* Black-box entry subcircuit for sky130_fd_sc_hd__o221a_1 abstract view
.subckt sky130_fd_sc_hd__o221a_1 A1 A2 B1 B2 C1 VGND VNB VPB VPWR X
.ends

* Black-box entry subcircuit for sky130_fd_sc_hd__o2bb2ai_2 abstract view
.subckt sky130_fd_sc_hd__o2bb2ai_2 A1_N A2_N B1 B2 VGND VNB VPB VPWR Y
.ends

* Black-box entry subcircuit for sky130_fd_sc_hd__a211oi_2 abstract view
.subckt sky130_fd_sc_hd__a211oi_2 A1 A2 B1 C1 VGND VNB VPB VPWR Y
.ends

* Black-box entry subcircuit for sky130_fd_sc_hd__or4_1 abstract view
.subckt sky130_fd_sc_hd__or4_1 A B C D VGND VNB VPB VPWR X
.ends

* Black-box entry subcircuit for sky130_fd_sc_hd__o31a_1 abstract view
.subckt sky130_fd_sc_hd__o31a_1 A1 A2 A3 B1 VGND VNB VPB VPWR X
.ends

* Black-box entry subcircuit for sky130_fd_sc_hd__o22a_1 abstract view
.subckt sky130_fd_sc_hd__o22a_1 A1 A2 B1 B2 VGND VNB VPB VPWR X
.ends

.subckt mkQF100Fabric CLK RST_N VGND VPWR cpu_ack_o cpu_adr_i[0] cpu_adr_i[10] cpu_adr_i[11]
+ cpu_adr_i[12] cpu_adr_i[13] cpu_adr_i[14] cpu_adr_i[15] cpu_adr_i[16] cpu_adr_i[17]
+ cpu_adr_i[18] cpu_adr_i[19] cpu_adr_i[1] cpu_adr_i[20] cpu_adr_i[21] cpu_adr_i[22]
+ cpu_adr_i[23] cpu_adr_i[24] cpu_adr_i[25] cpu_adr_i[26] cpu_adr_i[27] cpu_adr_i[28]
+ cpu_adr_i[29] cpu_adr_i[2] cpu_adr_i[30] cpu_adr_i[31] cpu_adr_i[3] cpu_adr_i[4]
+ cpu_adr_i[5] cpu_adr_i[6] cpu_adr_i[7] cpu_adr_i[8] cpu_adr_i[9] cpu_cyc_i cpu_dat_i[0]
+ cpu_dat_i[10] cpu_dat_i[11] cpu_dat_i[12] cpu_dat_i[13] cpu_dat_i[14] cpu_dat_i[15]
+ cpu_dat_i[16] cpu_dat_i[17] cpu_dat_i[18] cpu_dat_i[19] cpu_dat_i[1] cpu_dat_i[20]
+ cpu_dat_i[21] cpu_dat_i[22] cpu_dat_i[23] cpu_dat_i[24] cpu_dat_i[25] cpu_dat_i[26]
+ cpu_dat_i[27] cpu_dat_i[28] cpu_dat_i[29] cpu_dat_i[2] cpu_dat_i[30] cpu_dat_i[31]
+ cpu_dat_i[3] cpu_dat_i[4] cpu_dat_i[5] cpu_dat_i[6] cpu_dat_i[7] cpu_dat_i[8] cpu_dat_i[9]
+ cpu_dat_o[0] cpu_dat_o[10] cpu_dat_o[11] cpu_dat_o[12] cpu_dat_o[13] cpu_dat_o[14]
+ cpu_dat_o[15] cpu_dat_o[16] cpu_dat_o[17] cpu_dat_o[18] cpu_dat_o[19] cpu_dat_o[1]
+ cpu_dat_o[20] cpu_dat_o[21] cpu_dat_o[22] cpu_dat_o[23] cpu_dat_o[24] cpu_dat_o[25]
+ cpu_dat_o[26] cpu_dat_o[27] cpu_dat_o[28] cpu_dat_o[29] cpu_dat_o[2] cpu_dat_o[30]
+ cpu_dat_o[31] cpu_dat_o[3] cpu_dat_o[4] cpu_dat_o[5] cpu_dat_o[6] cpu_dat_o[7] cpu_dat_o[8]
+ cpu_dat_o[9] cpu_err_o cpu_rty_o cpu_sel_i[0] cpu_sel_i[1] cpu_sel_i[2] cpu_sel_i[3]
+ cpu_stb_i cpu_we_i spi_ack_i spi_adr_o[0] spi_adr_o[10] spi_adr_o[11] spi_adr_o[12]
+ spi_adr_o[13] spi_adr_o[14] spi_adr_o[15] spi_adr_o[16] spi_adr_o[17] spi_adr_o[18]
+ spi_adr_o[19] spi_adr_o[1] spi_adr_o[20] spi_adr_o[21] spi_adr_o[22] spi_adr_o[23]
+ spi_adr_o[24] spi_adr_o[25] spi_adr_o[26] spi_adr_o[27] spi_adr_o[28] spi_adr_o[29]
+ spi_adr_o[2] spi_adr_o[30] spi_adr_o[31] spi_adr_o[3] spi_adr_o[4] spi_adr_o[5]
+ spi_adr_o[6] spi_adr_o[7] spi_adr_o[8] spi_adr_o[9] spi_cyc_o spi_dat_i[0] spi_dat_i[10]
+ spi_dat_i[11] spi_dat_i[12] spi_dat_i[13] spi_dat_i[14] spi_dat_i[15] spi_dat_i[16]
+ spi_dat_i[17] spi_dat_i[18] spi_dat_i[19] spi_dat_i[1] spi_dat_i[20] spi_dat_i[21]
+ spi_dat_i[22] spi_dat_i[23] spi_dat_i[24] spi_dat_i[25] spi_dat_i[26] spi_dat_i[27]
+ spi_dat_i[28] spi_dat_i[29] spi_dat_i[2] spi_dat_i[30] spi_dat_i[31] spi_dat_i[3]
+ spi_dat_i[4] spi_dat_i[5] spi_dat_i[6] spi_dat_i[7] spi_dat_i[8] spi_dat_i[9] spi_dat_o[0]
+ spi_dat_o[10] spi_dat_o[11] spi_dat_o[12] spi_dat_o[13] spi_dat_o[14] spi_dat_o[15]
+ spi_dat_o[16] spi_dat_o[17] spi_dat_o[18] spi_dat_o[19] spi_dat_o[1] spi_dat_o[20]
+ spi_dat_o[21] spi_dat_o[22] spi_dat_o[23] spi_dat_o[24] spi_dat_o[25] spi_dat_o[26]
+ spi_dat_o[27] spi_dat_o[28] spi_dat_o[29] spi_dat_o[2] spi_dat_o[30] spi_dat_o[31]
+ spi_dat_o[3] spi_dat_o[4] spi_dat_o[5] spi_dat_o[6] spi_dat_o[7] spi_dat_o[8] spi_dat_o[9]
+ spi_err_i spi_rty_i spi_sel_o[0] spi_sel_o[1] spi_sel_o[2] spi_sel_o[3] spi_stb_o
+ spi_we_o
XANTENNA__2479__B1 _2119_/X VGND VPWR VPWR VGND sky130_ef_sc_hd__fakediode_2
XTAP_199 VGND VPWR sky130_fd_sc_hd__tapvpwrvgnd_1
XTAP_188 VGND VPWR sky130_fd_sc_hd__tapvpwrvgnd_1
XTAP_177 VGND VPWR sky130_fd_sc_hd__tapvpwrvgnd_1
X_2106_ _2915_/Q _1914_/X _2058_/X _2523_/A VGND VGND VPWR VPWR _2624_/A sky130_fd_sc_hd__a2bb2o_1
XFILLER_36_962 VGND VGND VPWR VPWR sky130_fd_sc_hd__decap_4
X_2037_ _2903_/Q _2018_/X _1994_/X _2508_/A VGND VGND VPWR VPWR _2610_/A sky130_fd_sc_hd__a2bb2o_1
XFILLER_63_770 VGND VGND VPWR VPWR sky130_fd_sc_hd__decap_12
XFILLER_51_921 VGND VGND VPWR VPWR sky130_fd_sc_hd__decap_12
XANTENNA__2651__B1 _2650_/X VGND VPWR VPWR VGND sky130_ef_sc_hd__fakediode_2
XFILLER_52_29 VGND VGND VPWR VPWR sky130_fd_sc_hd__decap_12
XFILLER_51_965 VGND VGND VPWR VPWR sky130_fd_sc_hd__decap_12
XFILLER_35_1009 VGND VGND VPWR VPWR sky130_fd_sc_hd__decap_12
XFILLER_50_475 VGND VGND VPWR VPWR sky130_fd_sc_hd__fill_1
XFILLER_23_689 VGND VGND VPWR VPWR sky130_fd_sc_hd__decap_4
XFILLER_22_166 VGND VGND VPWR VPWR sky130_fd_sc_hd__decap_4
X_2939_ _2946_/CLK _2939_/D VGND VGND VPWR VPWR _2939_/Q sky130_fd_sc_hd__dfxtp_1
XANTENNA__2403__B1 _1545_/Y VGND VPWR VPWR VGND sky130_ef_sc_hd__fakediode_2
XFILLER_22_177 VGND VGND VPWR VPWR sky130_fd_sc_hd__fill_1
XFILLER_22_188 VGND VGND VPWR VPWR sky130_fd_sc_hd__decap_8
XANTENNA__1611__D1 _1611_/D1 VGND VPWR VPWR VGND sky130_ef_sc_hd__fakediode_2
XANTENNA__2190__A _2190_/A VGND VPWR VPWR VGND sky130_ef_sc_hd__fakediode_2
XANTENNA__1757__A2 _1756_/Y VGND VPWR VPWR VGND sky130_ef_sc_hd__fakediode_2
XANTENNA__1534__A _1534_/A VGND VPWR VPWR VGND sky130_ef_sc_hd__fakediode_2
XFILLER_58_531 VGND VGND VPWR VPWR sky130_fd_sc_hd__fill_1
XFILLER_19_918 VGND VGND VPWR VPWR sky130_fd_sc_hd__decap_4
XFILLER_46_737 VGND VGND VPWR VPWR sky130_fd_sc_hd__decap_12
XFILLER_45_225 VGND VGND VPWR VPWR sky130_fd_sc_hd__decap_12
XANTENNA__1693__A1 _1692_/X VGND VPWR VPWR VGND sky130_ef_sc_hd__fakediode_2
XFILLER_26_41 VGND VGND VPWR VPWR sky130_fd_sc_hd__decap_8
XFILLER_61_729 VGND VGND VPWR VPWR sky130_fd_sc_hd__decap_12
XFILLER_54_781 VGND VGND VPWR VPWR sky130_fd_sc_hd__decap_12
XFILLER_26_472 VGND VGND VPWR VPWR sky130_fd_sc_hd__decap_4
XFILLER_26_52 VGND VGND VPWR VPWR sky130_fd_sc_hd__decap_12
XFILLER_13_100 VGND VGND VPWR VPWR sky130_fd_sc_hd__decap_4
XFILLER_26_494 VGND VGND VPWR VPWR sky130_fd_sc_hd__decap_4
XFILLER_26_85 VGND VGND VPWR VPWR sky130_fd_sc_hd__decap_4
XANTENNA_input92_A spi_dat_i[26] VGND VPWR VPWR VGND sky130_ef_sc_hd__fakediode_2
XFILLER_41_497 VGND VGND VPWR VPWR sky130_fd_sc_hd__decap_4
XANTENNA__1709__A _1709_/A VGND VPWR VPWR VGND sky130_ef_sc_hd__fakediode_2
XFILLER_6_800 VGND VGND VPWR VPWR sky130_fd_sc_hd__decap_12
XFILLER_10_851 VGND VGND VPWR VPWR sky130_fd_sc_hd__decap_12
XANTENNA__1748__A2 _1689_/X VGND VPWR VPWR VGND sky130_ef_sc_hd__fakediode_2
XANTENNA_output179_A _2017_/Y VGND VPWR VPWR VGND sky130_ef_sc_hd__fakediode_2
XFILLER_5_387 VGND VGND VPWR VPWR sky130_fd_sc_hd__fill_1
XANTENNA__1444__A _1444_/A VGND VPWR VPWR VGND sky130_ef_sc_hd__fakediode_2
XFILLER_49_553 VGND VGND VPWR VPWR sky130_fd_sc_hd__decap_6
XFILLER_3_1007 VGND VGND VPWR VPWR sky130_fd_sc_hd__fill_1
Xclkbuf_leaf_6_CLK clkbuf_1_0_0_CLK/X VGND VGND VPWR VPWR _2946_/CLK sky130_fd_sc_hd__clkbuf_16
XFILLER_49_597 VGND VGND VPWR VPWR sky130_fd_sc_hd__decap_12
XFILLER_37_737 VGND VGND VPWR VPWR sky130_fd_sc_hd__decap_3
XFILLER_37_726 VGND VGND VPWR VPWR sky130_fd_sc_hd__fill_2
XANTENNA__1684__A1 _1645_/X VGND VPWR VPWR VGND sky130_ef_sc_hd__fakediode_2
XANTENNA__2476__A3 _1528_/B VGND VPWR VPWR VGND sky130_ef_sc_hd__fakediode_2
XANTENNA__2275__A _2275_/A VGND VPWR VPWR VGND sky130_ef_sc_hd__fakediode_2
XFILLER_51_217 VGND VGND VPWR VPWR sky130_fd_sc_hd__decap_6
XFILLER_33_965 VGND VGND VPWR VPWR sky130_fd_sc_hd__decap_4
XFILLER_17_494 VGND VGND VPWR VPWR sky130_fd_sc_hd__decap_6
XANTENNA__2397__C1 _2231_/A VGND VPWR VPWR VGND sky130_ef_sc_hd__fakediode_2
XFILLER_9_671 VGND VGND VPWR VPWR sky130_fd_sc_hd__fill_1
X_2724_ _2745_/CLK _2724_/D VGND VGND VPWR VPWR _2724_/Q sky130_fd_sc_hd__dfxtp_1
X_2655_ _2939_/Q _2649_/X _2650_/X VGND VGND VPWR VPWR _2939_/D sky130_fd_sc_hd__a21o_1
X_1606_ _1702_/A VGND VGND VPWR VPWR _1606_/X sky130_fd_sc_hd__buf_2
X_2586_ _2586_/A _2593_/B VGND VGND VPWR VPWR _2884_/D sky130_fd_sc_hd__nor2_1
X_1537_ _1902_/A _1530_/X _1533_/X _1536_/X input74/X VGND VGND VPWR VPWR _1537_/Y
+ sky130_fd_sc_hd__o2111ai_2
XANTENNA__1354__A _1354_/A VGND VPWR VPWR VGND sky130_ef_sc_hd__fakediode_2
X_1468_ _2949_/A _1531_/A _1467_/X VGND VGND VPWR VPWR _1616_/A sky130_fd_sc_hd__a21oi_4
X_1399_ _2772_/Q _1428_/A _1398_/Y _1431_/A VGND VGND VPWR VPWR _1509_/B sky130_fd_sc_hd__o211ai_2
XFILLER_41_1057 VGND VGND VPWR VPWR sky130_fd_sc_hd__fill_2
XFILLER_27_225 VGND VGND VPWR VPWR sky130_fd_sc_hd__fill_2
XANTENNA__1675__A1 _1670_/X VGND VPWR VPWR VGND sky130_ef_sc_hd__fakediode_2
XFILLER_27_258 VGND VGND VPWR VPWR sky130_fd_sc_hd__decap_4
XANTENNA__1801__B _2128_/B VGND VPWR VPWR VGND sky130_ef_sc_hd__fakediode_2
XTAP_1118 VGND VPWR sky130_fd_sc_hd__tapvpwrvgnd_1
XTAP_1129 VGND VPWR sky130_fd_sc_hd__tapvpwrvgnd_1
XTAP_1107 VGND VPWR sky130_fd_sc_hd__tapvpwrvgnd_1
XFILLER_43_729 VGND VGND VPWR VPWR sky130_fd_sc_hd__decap_12
XANTENNA__2185__A _2185_/A VGND VPWR VPWR VGND sky130_ef_sc_hd__fakediode_2
XFILLER_24_910 VGND VGND VPWR VPWR sky130_fd_sc_hd__fill_1
XFILLER_24_965 VGND VGND VPWR VPWR sky130_fd_sc_hd__fill_1
XANTENNA__1454__A_N _1409_/A VGND VPWR VPWR VGND sky130_ef_sc_hd__fakediode_2
XANTENNA__1427__A1 _1815_/A VGND VPWR VPWR VGND sky130_ef_sc_hd__fakediode_2
XFILLER_24_976 VGND VGND VPWR VPWR sky130_fd_sc_hd__decap_4
XANTENNA__1978__A2 _1961_/X VGND VPWR VPWR VGND sky130_ef_sc_hd__fakediode_2
XFILLER_11_648 VGND VGND VPWR VPWR sky130_fd_sc_hd__decap_4
XANTENNA__2632__B _2632_/B VGND VPWR VPWR VGND sky130_ef_sc_hd__fakediode_2
XANTENNA__1529__A _1562_/A VGND VPWR VPWR VGND sky130_ef_sc_hd__fakediode_2
XANTENNA__2124__S _2124_/S VGND VPWR VPWR VGND sky130_ef_sc_hd__fakediode_2
XFILLER_6_107 VGND VGND VPWR VPWR sky130_fd_sc_hd__fill_1
XANTENNA__2388__C1 _2365_/Y VGND VPWR VPWR VGND sky130_ef_sc_hd__fakediode_2
XFILLER_10_136 VGND VGND VPWR VPWR sky130_fd_sc_hd__decap_4
XFILLER_2_302 VGND VGND VPWR VPWR sky130_fd_sc_hd__decap_4
XFILLER_2_368 VGND VGND VPWR VPWR sky130_fd_sc_hd__decap_4
XANTENNA__1363__B1 _1362_/Y VGND VPWR VPWR VGND sky130_ef_sc_hd__fakediode_2
XFILLER_46_501 VGND VGND VPWR VPWR sky130_fd_sc_hd__decap_12
XANTENNA__1414__D _1414_/D VGND VPWR VPWR VGND sky130_ef_sc_hd__fakediode_2
XFILLER_59_895 VGND VGND VPWR VPWR sky130_fd_sc_hd__fill_1
XFILLER_58_383 VGND VGND VPWR VPWR sky130_fd_sc_hd__decap_12
XFILLER_37_51 VGND VGND VPWR VPWR sky130_fd_sc_hd__decap_4
XANTENNA__1666__A1 _1664_/Y VGND VPWR VPWR VGND sky130_ef_sc_hd__fakediode_2
XFILLER_19_748 VGND VGND VPWR VPWR sky130_fd_sc_hd__fill_1
XFILLER_46_545 VGND VGND VPWR VPWR sky130_fd_sc_hd__decap_12
XANTENNA__2672__CLK _2920_/CLK VGND VPWR VPWR VGND sky130_ef_sc_hd__fakediode_2
XFILLER_18_236 VGND VGND VPWR VPWR sky130_fd_sc_hd__decap_4
XFILLER_19_759 VGND VGND VPWR VPWR sky130_fd_sc_hd__decap_4
XFILLER_46_589 VGND VGND VPWR VPWR sky130_fd_sc_hd__decap_12
XFILLER_27_781 VGND VGND VPWR VPWR sky130_fd_sc_hd__decap_3
XFILLER_15_921 VGND VGND VPWR VPWR sky130_fd_sc_hd__decap_12
XFILLER_61_559 VGND VGND VPWR VPWR sky130_fd_sc_hd__fill_1
XFILLER_26_291 VGND VGND VPWR VPWR sky130_fd_sc_hd__fill_2
XANTENNA__1418__A1 _1803_/A VGND VPWR VPWR VGND sky130_ef_sc_hd__fakediode_2
XANTENNA__1430__C _1454_/C VGND VPWR VPWR VGND sky130_ef_sc_hd__fakediode_2
XFILLER_14_431 VGND VGND VPWR VPWR sky130_fd_sc_hd__decap_4
XFILLER_14_442 VGND VGND VPWR VPWR sky130_fd_sc_hd__decap_4
XFILLER_15_965 VGND VGND VPWR VPWR sky130_fd_sc_hd__decap_12
XFILLER_18_1037 VGND VGND VPWR VPWR sky130_fd_sc_hd__decap_12
XFILLER_41_261 VGND VGND VPWR VPWR sky130_fd_sc_hd__decap_12
XFILLER_30_946 VGND VGND VPWR VPWR sky130_fd_sc_hd__decap_4
XANTENNA__2542__B _2542_/B VGND VPWR VPWR VGND sky130_ef_sc_hd__fakediode_2
XANTENNA__2379__C1 _2231_/A VGND VPWR VPWR VGND sky130_ef_sc_hd__fakediode_2
XANTENNA__2034__S _2034_/S VGND VPWR VPWR VGND sky130_ef_sc_hd__fakediode_2
XFILLER_5_140 VGND VGND VPWR VPWR sky130_fd_sc_hd__decap_4
XANTENNA__2394__A2 _1785_/S VGND VPWR VPWR VGND sky130_ef_sc_hd__fakediode_2
XFILLER_5_173 VGND VGND VPWR VPWR sky130_fd_sc_hd__decap_4
X_2440_ _1662_/X _1666_/Y _2436_/X _2431_/X VGND VGND VPWR VPWR _2792_/D sky130_fd_sc_hd__o211a_1
XFILLER_64_1002 VGND VGND VPWR VPWR sky130_fd_sc_hd__decap_4
XFILLER_64_1035 VGND VGND VPWR VPWR sky130_fd_sc_hd__fill_1
X_2371_ _2371_/A VGND VGND VPWR VPWR _2759_/D sky130_fd_sc_hd__clkbuf_1
X_1322_ _1479_/A _1319_/Y _1321_/Y VGND VGND VPWR VPWR _2552_/A sky130_fd_sc_hd__o21ai_2
XFILLER_56_309 VGND VGND VPWR VPWR sky130_fd_sc_hd__decap_12
XANTENNA__1902__A _1902_/A VGND VPWR VPWR VGND sky130_ef_sc_hd__fakediode_2
XFILLER_49_361 VGND VGND VPWR VPWR sky130_fd_sc_hd__decap_12
XFILLER_37_556 VGND VGND VPWR VPWR sky130_fd_sc_hd__decap_4
XFILLER_25_729 VGND VGND VPWR VPWR sky130_fd_sc_hd__decap_4
XFILLER_18_781 VGND VGND VPWR VPWR sky130_fd_sc_hd__decap_4
XFILLER_64_397 VGND VGND VPWR VPWR sky130_fd_sc_hd__decap_4
XANTENNA__2082__A1 input52/X VGND VPWR VPWR VGND sky130_ef_sc_hd__fakediode_2
XFILLER_60_581 VGND VGND VPWR VPWR sky130_fd_sc_hd__decap_6
X_2707_ _2776_/CLK _2707_/D VGND VGND VPWR VPWR _2707_/Q sky130_fd_sc_hd__dfxtp_1
X_2638_ _2638_/A _2638_/B VGND VGND VPWR VPWR _2929_/D sky130_fd_sc_hd__nand2_1
XFILLER_0_817 VGND VGND VPWR VPWR sky130_fd_sc_hd__decap_4
XANTENNA__1345__B1 _2761_/Q VGND VPWR VPWR VGND sky130_ef_sc_hd__fakediode_2
X_2569_ _1504_/Y _1327_/Y _2552_/B VGND VGND VPWR VPWR _2873_/D sky130_fd_sc_hd__a21o_1
XFILLER_59_125 VGND VGND VPWR VPWR sky130_fd_sc_hd__decap_12
XANTENNA__2695__CLK _2703_/CLK VGND VPWR VPWR VGND sky130_ef_sc_hd__fakediode_2
XFILLER_0_839 VGND VGND VPWR VPWR sky130_fd_sc_hd__fill_1
XFILLER_59_169 VGND VGND VPWR VPWR sky130_fd_sc_hd__decap_8
XFILLER_28_501 VGND VGND VPWR VPWR sky130_fd_sc_hd__fill_1
XANTENNA__1648__A1 _2181_/A VGND VPWR VPWR VGND sky130_ef_sc_hd__fakediode_2
XFILLER_16_707 VGND VGND VPWR VPWR sky130_fd_sc_hd__decap_4
XFILLER_28_589 VGND VGND VPWR VPWR sky130_fd_sc_hd__decap_12
XANTENNA__2346__C _2370_/C VGND VPWR VPWR VGND sky130_ef_sc_hd__fakediode_2
XFILLER_43_559 VGND VGND VPWR VPWR sky130_fd_sc_hd__fill_1
XFILLER_15_239 VGND VGND VPWR VPWR sky130_fd_sc_hd__fill_1
XANTENNA__2073__A1 _2839_/Q VGND VPWR VPWR VGND sky130_ef_sc_hd__fakediode_2
XFILLER_7_405 VGND VGND VPWR VPWR sky130_fd_sc_hd__decap_4
XFILLER_8_917 VGND VGND VPWR VPWR sky130_fd_sc_hd__decap_6
XFILLER_12_979 VGND VGND VPWR VPWR sky130_fd_sc_hd__fill_1
XANTENNA__2339__C_N _2329_/X VGND VPWR VPWR VGND sky130_ef_sc_hd__fakediode_2
XANTENNA__1584__B1 _2675_/Q VGND VPWR VPWR VGND sky130_ef_sc_hd__fakediode_2
XFILLER_3_600 VGND VGND VPWR VPWR sky130_fd_sc_hd__decap_4
XFILLER_2_121 VGND VGND VPWR VPWR sky130_fd_sc_hd__decap_12
XFILLER_3_666 VGND VGND VPWR VPWR sky130_fd_sc_hd__fill_2
XFILLER_2_143 VGND VGND VPWR VPWR sky130_fd_sc_hd__fill_1
XANTENNA_input55_A cpu_dat_i[28] VGND VPWR VPWR VGND sky130_ef_sc_hd__fakediode_2
XANTENNA__1336__B1 _1335_/Y VGND VPWR VPWR VGND sky130_ef_sc_hd__fakediode_2
XFILLER_3_699 VGND VGND VPWR VPWR sky130_fd_sc_hd__decap_12
XFILLER_38_309 VGND VGND VPWR VPWR sky130_fd_sc_hd__decap_12
XFILLER_48_83 VGND VGND VPWR VPWR sky130_fd_sc_hd__fill_1
XFILLER_47_821 VGND VGND VPWR VPWR sky130_fd_sc_hd__decap_12
XANTENNA__2101__A2_N _2064_/X VGND VPWR VPWR VGND sky130_ef_sc_hd__fakediode_2
XFILLER_47_865 VGND VGND VPWR VPWR sky130_fd_sc_hd__decap_12
XANTENNA__1639__A1 _1576_/X VGND VPWR VPWR VGND sky130_ef_sc_hd__fakediode_2
XFILLER_0_24 VGND VGND VPWR VPWR sky130_fd_sc_hd__decap_4
XANTENNA_output211_A _1485_/Y VGND VPWR VPWR VGND sky130_ef_sc_hd__fakediode_2
XFILLER_62_813 VGND VGND VPWR VPWR sky130_fd_sc_hd__decap_12
XFILLER_0_68 VGND VGND VPWR VPWR sky130_fd_sc_hd__decap_4
XFILLER_19_567 VGND VGND VPWR VPWR sky130_fd_sc_hd__decap_4
XFILLER_0_79 VGND VGND VPWR VPWR sky130_fd_sc_hd__decap_4
XANTENNA__2116__A2_N _1914_/X VGND VPWR VPWR VGND sky130_ef_sc_hd__fakediode_2
XFILLER_9_11 VGND VGND VPWR VPWR sky130_fd_sc_hd__fill_2
XFILLER_15_762 VGND VGND VPWR VPWR sky130_fd_sc_hd__decap_4