* NGSPICE file created from mkQF100GPIO.ext - technology: sky130A

* Black-box entry subcircuit for sky130_fd_sc_hd__fill_1 abstract view
.subckt sky130_fd_sc_hd__fill_1 VGND VNB VPB VPWR
.ends

* Black-box entry subcircuit for sky130_fd_sc_hd__decap_4 abstract view
.subckt sky130_fd_sc_hd__decap_4 VGND VNB VPB VPWR
.ends

* Black-box entry subcircuit for sky130_fd_sc_hd__dfxtp_1 abstract view
.subckt sky130_fd_sc_hd__dfxtp_1 CLK D VGND VNB VPB VPWR Q
.ends

* Black-box entry subcircuit for sky130_fd_sc_hd__tapvpwrvgnd_1 abstract view
.subckt sky130_fd_sc_hd__tapvpwrvgnd_1 VGND VPWR
.ends

* Black-box entry subcircuit for sky130_fd_sc_hd__decap_12 abstract view
.subckt sky130_fd_sc_hd__decap_12 VGND VNB VPB VPWR
.ends

* Black-box entry subcircuit for sky130_fd_sc_hd__decap_8 abstract view
.subckt sky130_fd_sc_hd__decap_8 VGND VNB VPB VPWR
.ends

* Black-box entry subcircuit for sky130_fd_sc_hd__fill_2 abstract view
.subckt sky130_fd_sc_hd__fill_2 VGND VNB VPB VPWR
.ends

* Black-box entry subcircuit for sky130_fd_sc_hd__clkbuf_16 abstract view
.subckt sky130_fd_sc_hd__clkbuf_16 A VGND VNB VPB VPWR X
.ends

* Black-box entry subcircuit for sky130_fd_sc_hd__dlymetal6s2s_1 abstract view
.subckt sky130_fd_sc_hd__dlymetal6s2s_1 A VGND VNB VPB VPWR X
.ends

* Black-box entry subcircuit for sky130_fd_sc_hd__decap_3 abstract view
.subckt sky130_fd_sc_hd__decap_3 VGND VNB VPB VPWR
.ends

* Black-box entry subcircuit for sky130_fd_sc_hd__clkbuf_2 abstract view
.subckt sky130_fd_sc_hd__clkbuf_2 A VGND VNB VPB VPWR X
.ends

* Black-box entry subcircuit for sky130_fd_sc_hd__clkbuf_1 abstract view
.subckt sky130_fd_sc_hd__clkbuf_1 A VGND VNB VPB VPWR X
.ends

* Black-box entry subcircuit for sky130_fd_sc_hd__o22ai_1 abstract view
.subckt sky130_fd_sc_hd__o22ai_1 A1 A2 B1 B2 VGND VNB VPB VPWR Y
.ends

* Black-box entry subcircuit for sky130_fd_sc_hd__or2_1 abstract view
.subckt sky130_fd_sc_hd__or2_1 A B VGND VNB VPB VPWR X
.ends

* Black-box entry subcircuit for sky130_fd_sc_hd__decap_6 abstract view
.subckt sky130_fd_sc_hd__decap_6 VGND VNB VPB VPWR
.ends

* Black-box entry subcircuit for sky130_fd_sc_hd__and3_1 abstract view
.subckt sky130_fd_sc_hd__and3_1 A B C VGND VNB VPB VPWR X
.ends

* Black-box entry subcircuit for sky130_fd_sc_hd__a221o_1 abstract view
.subckt sky130_fd_sc_hd__a221o_1 A1 A2 B1 B2 C1 VGND VNB VPB VPWR X
.ends

* Black-box entry subcircuit for sky130_fd_sc_hd__a221o_2 abstract view
.subckt sky130_fd_sc_hd__a221o_2 A1 A2 B1 B2 C1 VGND VNB VPB VPWR X
.ends

* Black-box entry subcircuit for sky130_fd_sc_hd__o21ai_4 abstract view
.subckt sky130_fd_sc_hd__o21ai_4 A1 A2 B1 VGND VNB VPB VPWR Y
.ends

* Black-box entry subcircuit for sky130_fd_sc_hd__o211a_1 abstract view
.subckt sky130_fd_sc_hd__o211a_1 A1 A2 B1 C1 VGND VNB VPB VPWR X
.ends

* Black-box entry subcircuit for sky130_fd_sc_hd__nor2_1 abstract view
.subckt sky130_fd_sc_hd__nor2_1 A B VGND VNB VPB VPWR Y
.ends

* Black-box entry subcircuit for sky130_fd_sc_hd__nor3_4 abstract view
.subckt sky130_fd_sc_hd__nor3_4 A B C VGND VNB VPB VPWR Y
.ends

* Black-box entry subcircuit for sky130_fd_sc_hd__a21bo_1 abstract view
.subckt sky130_fd_sc_hd__a21bo_1 A1 A2 B1_N VGND VNB VPB VPWR X
.ends

* Black-box entry subcircuit for sky130_fd_sc_hd__diode_2 abstract view
.subckt sky130_fd_sc_hd__diode_2 DIODE VGND VNB VPB VPWR
.ends

* Black-box entry subcircuit for sky130_fd_sc_hd__nand2_1 abstract view
.subckt sky130_fd_sc_hd__nand2_1 A B VGND VNB VPB VPWR Y
.ends

* Black-box entry subcircuit for sky130_fd_sc_hd__and2b_1 abstract view
.subckt sky130_fd_sc_hd__and2b_1 A_N B VGND VNB VPB VPWR X
.ends

* Black-box entry subcircuit for sky130_fd_sc_hd__buf_2 abstract view
.subckt sky130_fd_sc_hd__buf_2 A VGND VNB VPB VPWR X
.ends

* Black-box entry subcircuit for sky130_fd_sc_hd__a22o_1 abstract view
.subckt sky130_fd_sc_hd__a22o_1 A1 A2 B1 B2 VGND VNB VPB VPWR X
.ends

* Black-box entry subcircuit for sky130_fd_sc_hd__and2_1 abstract view
.subckt sky130_fd_sc_hd__and2_1 A B VGND VNB VPB VPWR X
.ends

* Black-box entry subcircuit for sky130_fd_sc_hd__a32o_1 abstract view
.subckt sky130_fd_sc_hd__a32o_1 A1 A2 A3 B1 B2 VGND VNB VPB VPWR X
.ends

* Black-box entry subcircuit for sky130_fd_sc_hd__o21ai_1 abstract view
.subckt sky130_fd_sc_hd__o21ai_1 A1 A2 B1 VGND VNB VPB VPWR Y
.ends

* Black-box entry subcircuit for sky130_fd_sc_hd__a21o_1 abstract view
.subckt sky130_fd_sc_hd__a21o_1 A1 A2 B1 VGND VNB VPB VPWR X
.ends

* Black-box entry subcircuit for sky130_fd_sc_hd__dfxtp_2 abstract view
.subckt sky130_fd_sc_hd__dfxtp_2 CLK D VGND VNB VPB VPWR Q
.ends

* Black-box entry subcircuit for sky130_fd_sc_hd__and3b_1 abstract view
.subckt sky130_fd_sc_hd__and3b_1 A_N B C VGND VNB VPB VPWR X
.ends

* Black-box entry subcircuit for sky130_fd_sc_hd__or4_4 abstract view
.subckt sky130_fd_sc_hd__or4_4 A B C D VGND VNB VPB VPWR X
.ends

* Black-box entry subcircuit for sky130_fd_sc_hd__or4_1 abstract view
.subckt sky130_fd_sc_hd__or4_1 A B C D VGND VNB VPB VPWR X
.ends

* Black-box entry subcircuit for sky130_fd_sc_hd__a211o_1 abstract view
.subckt sky130_fd_sc_hd__a211o_1 A1 A2 B1 C1 VGND VNB VPB VPWR X
.ends

* Black-box entry subcircuit for sky130_fd_sc_hd__or3b_1 abstract view
.subckt sky130_fd_sc_hd__or3b_1 A B C_N VGND VNB VPB VPWR X
.ends

* Black-box entry subcircuit for sky130_fd_sc_hd__clkbuf_4 abstract view
.subckt sky130_fd_sc_hd__clkbuf_4 A VGND VNB VPB VPWR X
.ends

* Black-box entry subcircuit for sky130_fd_sc_hd__or2_2 abstract view
.subckt sky130_fd_sc_hd__or2_2 A B VGND VNB VPB VPWR X
.ends

* Black-box entry subcircuit for sky130_fd_sc_hd__a21boi_1 abstract view
.subckt sky130_fd_sc_hd__a21boi_1 A1 A2 B1_N VGND VNB VPB VPWR Y
.ends

* Black-box entry subcircuit for sky130_fd_sc_hd__inv_2 abstract view
.subckt sky130_fd_sc_hd__inv_2 A VGND VNB VPB VPWR Y
.ends

* Black-box entry subcircuit for sky130_fd_sc_hd__o21a_1 abstract view
.subckt sky130_fd_sc_hd__o21a_1 A1 A2 B1 VGND VNB VPB VPWR X
.ends

* Black-box entry subcircuit for sky130_fd_sc_hd__or4_2 abstract view
.subckt sky130_fd_sc_hd__or4_2 A B C D VGND VNB VPB VPWR X
.ends

* Black-box entry subcircuit for sky130_fd_sc_hd__a211o_2 abstract view
.subckt sky130_fd_sc_hd__a211o_2 A1 A2 B1 C1 VGND VNB VPB VPWR X
.ends

* Black-box entry subcircuit for sky130_fd_sc_hd__or3_4 abstract view
.subckt sky130_fd_sc_hd__or3_4 A B C VGND VNB VPB VPWR X
.ends

* Black-box entry subcircuit for sky130_fd_sc_hd__or2b_1 abstract view
.subckt sky130_fd_sc_hd__or2b_1 A B_N VGND VNB VPB VPWR X
.ends

* Black-box entry subcircuit for sky130_fd_sc_hd__or3_1 abstract view
.subckt sky130_fd_sc_hd__or3_1 A B C VGND VNB VPB VPWR X
.ends

* Black-box entry subcircuit for sky130_fd_sc_hd__a2bb2o_1 abstract view
.subckt sky130_fd_sc_hd__a2bb2o_1 A1_N A2_N B1 B2 VGND VNB VPB VPWR X
.ends

* Black-box entry subcircuit for sky130_fd_sc_hd__conb_1 abstract view
.subckt sky130_fd_sc_hd__conb_1 VGND VNB VPB VPWR HI LO
.ends

* Black-box entry subcircuit for sky130_fd_sc_hd__and2b_2 abstract view
.subckt sky130_fd_sc_hd__and2b_2 A_N B VGND VNB VPB VPWR X
.ends

* Black-box entry subcircuit for sky130_fd_sc_hd__nor4_4 abstract view
.subckt sky130_fd_sc_hd__nor4_4 A B C D VGND VNB VPB VPWR Y
.ends

* Black-box entry subcircuit for sky130_fd_sc_hd__and3_2 abstract view
.subckt sky130_fd_sc_hd__and3_2 A B C VGND VNB VPB VPWR X
.ends

* Black-box entry subcircuit for sky130_fd_sc_hd__clkdlybuf4s25_1 abstract view
.subckt sky130_fd_sc_hd__clkdlybuf4s25_1 A VGND VNB VPB VPWR X
.ends

* Black-box entry subcircuit for sky130_fd_sc_hd__nand2_2 abstract view
.subckt sky130_fd_sc_hd__nand2_2 A B VGND VNB VPB VPWR Y
.ends

* Black-box entry subcircuit for sky130_fd_sc_hd__clkdlybuf4s50_1 abstract view
.subckt sky130_fd_sc_hd__clkdlybuf4s50_1 A VGND VNB VPB VPWR X
.ends

* Black-box entry subcircuit for sky130_fd_sc_hd__a21oi_2 abstract view
.subckt sky130_fd_sc_hd__a21oi_2 A1 A2 B1 VGND VNB VPB VPWR Y
.ends

* Black-box entry subcircuit for sky130_fd_sc_hd__a311o_1 abstract view
.subckt sky130_fd_sc_hd__a311o_1 A1 A2 A3 B1 C1 VGND VNB VPB VPWR X
.ends

* Black-box entry subcircuit for sky130_fd_sc_hd__a21oi_1 abstract view
.subckt sky130_fd_sc_hd__a21oi_1 A1 A2 B1 VGND VNB VPB VPWR Y
.ends

* Black-box entry subcircuit for sky130_fd_sc_hd__nor2_2 abstract view
.subckt sky130_fd_sc_hd__nor2_2 A B VGND VNB VPB VPWR Y
.ends

* Black-box entry subcircuit for sky130_fd_sc_hd__o21ai_2 abstract view
.subckt sky130_fd_sc_hd__o21ai_2 A1 A2 B1 VGND VNB VPB VPWR Y
.ends

.subckt mkQF100GPIO CLK RST_N in[0] in[10] in[11] in[12] in[13] in[14] in[15] in[1]
+ in[2] in[3] in[4] in[5] in[6] in[7] in[8] in[9] oe[0] oe[10] oe[11] oe[12] oe[13]
+ oe[14] oe[15] oe[1] oe[2] oe[3] oe[4] oe[5] oe[6] oe[7] oe[8] oe[9] out[0] out[10]
+ out[11] out[12] out[13] out[14] out[15] out[1] out[2] out[3] out[4] out[5] out[6]
+ out[7] out[8] out[9] slave_ack_o slave_adr_i[0] slave_adr_i[10] slave_adr_i[11]
+ slave_adr_i[12] slave_adr_i[13] slave_adr_i[14] slave_adr_i[15] slave_adr_i[16]
+ slave_adr_i[17] slave_adr_i[18] slave_adr_i[19] slave_adr_i[1] slave_adr_i[20] slave_adr_i[21]
+ slave_adr_i[22] slave_adr_i[23] slave_adr_i[24] slave_adr_i[25] slave_adr_i[26]
+ slave_adr_i[27] slave_adr_i[28] slave_adr_i[29] slave_adr_i[2] slave_adr_i[30] slave_adr_i[31]
+ slave_adr_i[3] slave_adr_i[4] slave_adr_i[5] slave_adr_i[6] slave_adr_i[7] slave_adr_i[8]
+ slave_adr_i[9] slave_cyc_i slave_dat_i[0] slave_dat_i[10] slave_dat_i[11] slave_dat_i[12]
+ slave_dat_i[13] slave_dat_i[14] slave_dat_i[15] slave_dat_i[16] slave_dat_i[17]
+ slave_dat_i[18] slave_dat_i[19] slave_dat_i[1] slave_dat_i[20] slave_dat_i[21] slave_dat_i[22]
+ slave_dat_i[23] slave_dat_i[24] slave_dat_i[25] slave_dat_i[26] slave_dat_i[27]
+ slave_dat_i[28] slave_dat_i[29] slave_dat_i[2] slave_dat_i[30] slave_dat_i[31] slave_dat_i[3]
+ slave_dat_i[4] slave_dat_i[5] slave_dat_i[6] slave_dat_i[7] slave_dat_i[8] slave_dat_i[9]
+ slave_dat_o[0] slave_dat_o[10] slave_dat_o[11] slave_dat_o[12] slave_dat_o[13] slave_dat_o[14]
+ slave_dat_o[15] slave_dat_o[16] slave_dat_o[17] slave_dat_o[18] slave_dat_o[19]
+ slave_dat_o[1] slave_dat_o[20] slave_dat_o[21] slave_dat_o[22] slave_dat_o[23] slave_dat_o[24]
+ slave_dat_o[25] slave_dat_o[26] slave_dat_o[27] slave_dat_o[28] slave_dat_o[29]
+ slave_dat_o[2] slave_dat_o[30] slave_dat_o[31] slave_dat_o[3] slave_dat_o[4] slave_dat_o[5]
+ slave_dat_o[6] slave_dat_o[7] slave_dat_o[8] slave_dat_o[9] slave_err_o slave_rty_o
+ slave_sel_i[0] slave_sel_i[1] slave_sel_i[2] slave_sel_i[3] slave_stb_i slave_we_i
+ vccd1 vssd1
XFILLER_79_391 vssd1 vssd1 vccd1 vccd1 sky130_fd_sc_hd__fill_1
XFILLER_39_255 vssd1 vssd1 vccd1 vccd1 sky130_fd_sc_hd__decap_4
X_2037_ _2184_/CLK _2037_/D vssd1 vssd1 vccd1 vccd1 _2037_/Q sky130_fd_sc_hd__dfxtp_1
XTAP_199 vssd1 vccd1 sky130_fd_sc_hd__tapvpwrvgnd_1
XTAP_188 vssd1 vccd1 sky130_fd_sc_hd__tapvpwrvgnd_1
XTAP_177 vssd1 vccd1 sky130_fd_sc_hd__tapvpwrvgnd_1
X_2106_ _2144_/CLK _2106_/D vssd1 vssd1 vccd1 vccd1 _2106_/Q sky130_fd_sc_hd__dfxtp_1
XFILLER_52_29 vssd1 vssd1 vccd1 vccd1 sky130_fd_sc_hd__decap_12
XFILLER_22_188 vssd1 vssd1 vccd1 vccd1 sky130_fd_sc_hd__decap_8
XFILLER_22_111 vssd1 vssd1 vccd1 vccd1 sky130_fd_sc_hd__decap_8
XFILLER_77_317 vssd1 vssd1 vccd1 vccd1 sky130_fd_sc_hd__decap_12
XFILLER_77_15 vssd1 vssd1 vccd1 vccd1 sky130_fd_sc_hd__decap_12
XFILLER_9_159 vssd1 vssd1 vccd1 vccd1 sky130_fd_sc_hd__decap_8
XFILLER_13_166 vssd1 vssd1 vccd1 vccd1 sky130_fd_sc_hd__fill_2
XFILLER_13_177 vssd1 vssd1 vccd1 vccd1 sky130_fd_sc_hd__fill_1
XFILLER_68_306 vssd1 vssd1 vccd1 vccd1 sky130_fd_sc_hd__fill_2
XFILLER_3_34 vssd1 vssd1 vccd1 vccd1 sky130_fd_sc_hd__decap_12
XFILLER_5_332 vssd1 vssd1 vccd1 vccd1 sky130_fd_sc_hd__decap_4
XFILLER_5_365 vssd1 vssd1 vccd1 vccd1 sky130_fd_sc_hd__decap_4
XFILLER_67_81 vssd1 vssd1 vccd1 vccd1 sky130_fd_sc_hd__decap_12
Xclkbuf_leaf_6_CLK clkbuf_2_2_0_CLK/X vssd1 vssd1 vccd1 vccd1 _2067_/CLK sky130_fd_sc_hd__clkbuf_16
X_1270_ _1270_/A vssd1 vssd1 vccd1 vccd1 _1270_/X sky130_fd_sc_hd__dlymetal6s2s_1
XFILLER_51_206 vssd1 vssd1 vccd1 vccd1 sky130_fd_sc_hd__decap_3
X_0985_ _0985_/A vssd1 vssd1 vccd1 vccd1 _1040_/B sky130_fd_sc_hd__clkbuf_2
X_1606_ _1606_/A vssd1 vssd1 vccd1 vccd1 _2106_/D sky130_fd_sc_hd__clkbuf_1
XFILLER_74_309 vssd1 vssd1 vccd1 vccd1 sky130_fd_sc_hd__decap_12
XFILLER_67_361 vssd1 vssd1 vccd1 vccd1 sky130_fd_sc_hd__decap_12
X_1468_ _1468_/A vssd1 vssd1 vccd1 vccd1 _2063_/D sky130_fd_sc_hd__clkbuf_1
X_1537_ input76/X _1513_/X _1531_/X _2085_/Q vssd1 vssd1 vccd1 vccd1 _1538_/B sky130_fd_sc_hd__o22ai_1
X_1399_ _2036_/Q _1399_/B vssd1 vssd1 vccd1 vccd1 _1400_/A sky130_fd_sc_hd__or2_1
XFILLER_82_331 vssd1 vssd1 vccd1 vccd1 sky130_fd_sc_hd__decap_4
XFILLER_63_39 vssd1 vssd1 vccd1 vccd1 sky130_fd_sc_hd__decap_12
XFILLER_42_217 vssd1 vssd1 vccd1 vccd1 sky130_fd_sc_hd__fill_1
XFILLER_27_225 vssd1 vssd1 vccd1 vccd1 sky130_fd_sc_hd__fill_1
XFILLER_2_302 vssd1 vssd1 vccd1 vccd1 sky130_fd_sc_hd__decap_6
XFILLER_12_65 vssd1 vssd1 vccd1 vccd1 sky130_fd_sc_hd__decap_12
XFILLER_77_169 vssd1 vssd1 vccd1 vccd1 sky130_fd_sc_hd__decap_12
XFILLER_77_125 vssd1 vssd1 vccd1 vccd1 sky130_fd_sc_hd__decap_3
XFILLER_18_247 vssd1 vssd1 vccd1 vccd1 sky130_fd_sc_hd__decap_4
XFILLER_33_239 vssd1 vssd1 vccd1 vccd1 sky130_fd_sc_hd__decap_12
XFILLER_5_140 vssd1 vssd1 vccd1 vccd1 sky130_fd_sc_hd__decap_4
X_1322_ _1338_/A input3/X _1322_/C vssd1 vssd1 vccd1 vccd1 _1324_/B sky130_fd_sc_hd__and3_1
XFILLER_68_158 vssd1 vssd1 vccd1 vccd1 sky130_fd_sc_hd__decap_4
XFILLER_56_309 vssd1 vssd1 vccd1 vccd1 sky130_fd_sc_hd__decap_8
X_1253_ _2239_/Q _1220_/X _1228_/X _2227_/Q _1229_/X vssd1 vssd1 vccd1 vccd1 _1253_/X
+ sky130_fd_sc_hd__a221o_1
X_1184_ _2153_/Q _1133_/X _1134_/X _2012_/Q _1183_/X vssd1 vssd1 vccd1 vccd1 _1184_/X
+ sky130_fd_sc_hd__a221o_2
XFILLER_49_361 vssd1 vssd1 vccd1 vccd1 sky130_fd_sc_hd__decap_12
XFILLER_24_239 vssd1 vssd1 vccd1 vccd1 sky130_fd_sc_hd__fill_2
XFILLER_32_294 vssd1 vssd1 vccd1 vccd1 sky130_fd_sc_hd__decap_12
XFILLER_32_261 vssd1 vssd1 vccd1 vccd1 sky130_fd_sc_hd__decap_12
X_0968_ _2081_/Q _2213_/Q _2147_/Q vssd1 vssd1 vccd1 vccd1 _1823_/B sky130_fd_sc_hd__o21ai_4
XFILLER_74_27 vssd1 vssd1 vccd1 vccd1 sky130_fd_sc_hd__fill_1
XFILLER_82_161 vssd1 vssd1 vccd1 vccd1 sky130_fd_sc_hd__decap_6
XFILLER_70_389 vssd1 vssd1 vccd1 vccd1 sky130_fd_sc_hd__decap_12
XFILLER_70_345 vssd1 vssd1 vccd1 vccd1 sky130_fd_sc_hd__decap_12
XFILLER_70_301 vssd1 vssd1 vccd1 vccd1 sky130_fd_sc_hd__decap_6
XFILLER_23_250 vssd1 vssd1 vccd1 vccd1 sky130_fd_sc_hd__decap_4
XFILLER_7_405 vssd1 vssd1 vccd1 vccd1 sky130_fd_sc_hd__fill_2
XFILLER_78_401 vssd1 vssd1 vccd1 vccd1 sky130_fd_sc_hd__decap_6
XFILLER_38_309 vssd1 vssd1 vccd1 vccd1 sky130_fd_sc_hd__decap_12
XFILLER_2_154 vssd1 vssd1 vccd1 vccd1 sky130_fd_sc_hd__fill_2
XFILLER_2_110 vssd1 vssd1 vccd1 vccd1 sky130_fd_sc_hd__decap_4
XFILLER_80_109 vssd1 vssd1 vccd1 vccd1 sky130_fd_sc_hd__decap_8
XFILLER_73_194 vssd1 vssd1 vccd1 vccd1 sky130_fd_sc_hd__fill_1
XFILLER_73_150 vssd1 vssd1 vccd1 vccd1 sky130_fd_sc_hd__decap_4
XFILLER_61_323 vssd1 vssd1 vccd1 vccd1 sky130_fd_sc_hd__decap_12
XFILLER_48_83 vssd1 vssd1 vccd1 vccd1 sky130_fd_sc_hd__fill_1
XFILLER_46_353 vssd1 vssd1 vccd1 vccd1 sky130_fd_sc_hd__decap_8
XFILLER_0_24 vssd1 vssd1 vccd1 vccd1 sky130_fd_sc_hd__decap_4
XFILLER_0_35 vssd1 vssd1 vccd1 vccd1 sky130_fd_sc_hd__decap_6
XFILLER_0_57 vssd1 vssd1 vccd1 vccd1 sky130_fd_sc_hd__decap_6
X_1871_ _1871_/A vssd1 vssd1 vccd1 vccd1 _2209_/D sky130_fd_sc_hd__clkbuf_1
X_1940_ _2238_/Q _1931_/X _1939_/X _1935_/X vssd1 vssd1 vccd1 vccd1 _2238_/D sky130_fd_sc_hd__o211a_1
XFILLER_9_55 vssd1 vssd1 vccd1 vccd1 sky130_fd_sc_hd__fill_1
XFILLER_14_261 vssd1 vssd1 vccd1 vccd1 sky130_fd_sc_hd__decap_4
XFILLER_50_3 vssd1 vssd1 vccd1 vccd1 sky130_fd_sc_hd__decap_12
X_1305_ _1317_/A _1305_/B _1305_/C vssd1 vssd1 vccd1 vccd1 _1307_/B sky130_fd_sc_hd__and3_1
XFILLER_56_139 vssd1 vssd1 vccd1 vccd1 sky130_fd_sc_hd__fill_1
X_1236_ _1252_/A _1856_/A vssd1 vssd1 vccd1 vccd1 _1236_/Y sky130_fd_sc_hd__nor2_1
XFILLER_52_389 vssd1 vssd1 vccd1 vccd1 sky130_fd_sc_hd__decap_12
XFILLER_52_345 vssd1 vssd1 vccd1 vccd1 sky130_fd_sc_hd__decap_12
XFILLER_37_353 vssd1 vssd1 vccd1 vccd1 sky130_fd_sc_hd__decap_4
X_1167_ _2188_/Q _1167_/B vssd1 vssd1 vccd1 vccd1 _1167_/X sky130_fd_sc_hd__or2_1
X_1098_ _1214_/A _1429_/B _1429_/C vssd1 vssd1 vccd1 vccd1 _1220_/A sky130_fd_sc_hd__nor3_4
XFILLER_60_29 vssd1 vssd1 vccd1 vccd1 sky130_fd_sc_hd__decap_12
XFILLER_69_27 vssd1 vssd1 vccd1 vccd1 sky130_fd_sc_hd__decap_12
XFILLER_62_109 vssd1 vssd1 vccd1 vccd1 sky130_fd_sc_hd__decap_4
XFILLER_43_323 vssd1 vssd1 vccd1 vccd1 sky130_fd_sc_hd__decap_12
XFILLER_18_53 vssd1 vssd1 vccd1 vccd1 sky130_fd_sc_hd__decap_8
XFILLER_70_197 vssd1 vssd1 vccd1 vccd1 sky130_fd_sc_hd__fill_2
XFILLER_70_186 vssd1 vssd1 vccd1 vccd1 sky130_fd_sc_hd__decap_8
XTAP_507 vssd1 vccd1 sky130_fd_sc_hd__tapvpwrvgnd_1
XFILLER_11_297 vssd1 vssd1 vccd1 vccd1 sky130_fd_sc_hd__decap_8
XFILLER_78_253 vssd1 vssd1 vccd1 vccd1 sky130_fd_sc_hd__decap_12
XTAP_529 vssd1 vccd1 sky130_fd_sc_hd__tapvpwrvgnd_1
XTAP_518 vssd1 vccd1 sky130_fd_sc_hd__tapvpwrvgnd_1
X_2070_ _2083_/CLK _2070_/D vssd1 vssd1 vccd1 vccd1 _2070_/Q sky130_fd_sc_hd__dfxtp_1
XFILLER_22_7 vssd1 vssd1 vccd1 vccd1 sky130_fd_sc_hd__fill_1
X_1021_ _1021_/A vssd1 vssd1 vccd1 vccd1 _1058_/B sky130_fd_sc_hd__clkbuf_2
XFILLER_75_81 vssd1 vssd1 vccd1 vccd1 sky130_fd_sc_hd__decap_12
XFILLER_34_389 vssd1 vssd1 vccd1 vccd1 sky130_fd_sc_hd__decap_12
X_1785_ _2166_/Q _1733_/X _1784_/X vssd1 vssd1 vccd1 vccd1 _1785_/X sky130_fd_sc_hd__a21bo_1
X_1923_ _2231_/Q _1918_/X _1921_/X _1922_/X vssd1 vssd1 vccd1 vccd1 _2231_/D sky130_fd_sc_hd__o211a_1
X_1854_ _1854_/A _1854_/B vssd1 vssd1 vccd1 vccd1 _1855_/A sky130_fd_sc_hd__or2_1
XFILLER_69_253 vssd1 vssd1 vccd1 vccd1 sky130_fd_sc_hd__decap_4
XFILLER_69_220 vssd1 vssd1 vccd1 vccd1 sky130_fd_sc_hd__decap_4
XFILLER_44_109 vssd1 vssd1 vccd1 vccd1 sky130_fd_sc_hd__fill_1
XFILLER_29_128 vssd1 vssd1 vccd1 vccd1 sky130_fd_sc_hd__decap_12
X_2199_ _2235_/CLK _2199_/D vssd1 vssd1 vccd1 vccd1 _2199_/Q sky130_fd_sc_hd__dfxtp_1
XFILLER_25_323 vssd1 vssd1 vccd1 vccd1 sky130_fd_sc_hd__decap_4
X_1219_ _1252_/A _1850_/A vssd1 vssd1 vccd1 vccd1 _1219_/Y sky130_fd_sc_hd__nor2_1
XFILLER_71_39 vssd1 vssd1 vccd1 vccd1 sky130_fd_sc_hd__decap_12
XFILLER_75_245 vssd1 vssd1 vccd1 vccd1 sky130_fd_sc_hd__decap_3
XFILLER_75_278 vssd1 vssd1 vccd1 vccd1 sky130_fd_sc_hd__fill_2
XFILLER_45_62 vssd1 vssd1 vccd1 vccd1 sky130_fd_sc_hd__decap_4
XFILLER_16_389 vssd1 vssd1 vccd1 vccd1 sky130_fd_sc_hd__decap_12
XFILLER_31_337 vssd1 vssd1 vccd1 vccd1 sky130_fd_sc_hd__fill_1
XANTENNA_5 _1058_/B vssd1 vssd1 vccd1 vccd1 sky130_fd_sc_hd__diode_2
XTAP_348 vssd1 vccd1 sky130_fd_sc_hd__tapvpwrvgnd_1
XTAP_337 vssd1 vccd1 sky130_fd_sc_hd__tapvpwrvgnd_1
XTAP_326 vssd1 vccd1 sky130_fd_sc_hd__tapvpwrvgnd_1
XFILLER_3_293 vssd1 vssd1 vccd1 vccd1 sky130_fd_sc_hd__decap_4
XTAP_304 vssd1 vccd1 sky130_fd_sc_hd__tapvpwrvgnd_1
XTAP_315 vssd1 vccd1 sky130_fd_sc_hd__tapvpwrvgnd_1
X_1570_ _1588_/A _1570_/B vssd1 vssd1 vccd1 vccd1 _2095_/D sky130_fd_sc_hd__nand2_1
XFILLER_81_215 vssd1 vssd1 vccd1 vccd1 sky130_fd_sc_hd__fill_1
X_2053_ _2067_/CLK _2053_/D vssd1 vssd1 vccd1 vccd1 _2053_/Q sky130_fd_sc_hd__dfxtp_1
XTAP_359 vssd1 vccd1 sky130_fd_sc_hd__tapvpwrvgnd_1
X_2122_ _2147_/CLK _2122_/D vssd1 vssd1 vccd1 vccd1 _2122_/Q sky130_fd_sc_hd__dfxtp_1
XFILLER_13_3 vssd1 vssd1 vccd1 vccd1 sky130_fd_sc_hd__decap_12
X_1004_ _1309_/C _1004_/B vssd1 vssd1 vccd1 vccd1 _1005_/A sky130_fd_sc_hd__and2b_1
XFILLER_22_304 vssd1 vssd1 vccd1 vccd1 sky130_fd_sc_hd__decap_4
X_1768_ _2159_/Q _1810_/B vssd1 vssd1 vccd1 vccd1 _1768_/X sky130_fd_sc_hd__or2_1
X_1906_ _2103_/Q _1897_/X _1905_/X _1895_/X vssd1 vssd1 vccd1 vccd1 _2225_/D sky130_fd_sc_hd__o211a_1
X_1837_ _1837_/A _1847_/B vssd1 vssd1 vccd1 vccd1 _1837_/Y sky130_fd_sc_hd__nor2_1
XFILLER_57_245 vssd1 vssd1 vccd1 vccd1 sky130_fd_sc_hd__decap_4
XFILLER_57_223 vssd1 vssd1 vccd1 vccd1 sky130_fd_sc_hd__fill_1
X_1699_ _1699_/A vssd1 vssd1 vccd1 vccd1 _2136_/D sky130_fd_sc_hd__clkbuf_1
XFILLER_82_49 vssd1 vssd1 vccd1 vccd1 sky130_fd_sc_hd__decap_6
XFILLER_82_27 vssd1 vssd1 vccd1 vccd1 sky130_fd_sc_hd__fill_1
XFILLER_25_142 vssd1 vssd1 vccd1 vccd1 sky130_fd_sc_hd__fill_1
XFILLER_17_109 vssd1 vssd1 vccd1 vccd1 sky130_fd_sc_hd__decap_3
XFILLER_25_186 vssd1 vssd1 vccd1 vccd1 sky130_fd_sc_hd__decap_4
XFILLER_31_97 vssd1 vssd1 vccd1 vccd1 sky130_fd_sc_hd__decap_6
Xoutput86 _1044_/B vssd1 vssd1 vccd1 vccd1 oe[10] sky130_fd_sc_hd__buf_2
Xoutput97 _1052_/B vssd1 vssd1 vccd1 vccd1 oe[6] sky130_fd_sc_hd__buf_2
XFILLER_56_83 vssd1 vssd1 vccd1 vccd1 sky130_fd_sc_hd__fill_1
XFILLER_48_201 vssd1 vssd1 vccd1 vccd1 sky130_fd_sc_hd__fill_1
XFILLER_0_285 vssd1 vssd1 vccd1 vccd1 sky130_fd_sc_hd__decap_6
XFILLER_71_281 vssd1 vssd1 vccd1 vccd1 sky130_fd_sc_hd__decap_12
XFILLER_63_259 vssd1 vssd1 vccd1 vccd1 sky130_fd_sc_hd__fill_1
XFILLER_63_248 vssd1 vssd1 vccd1 vccd1 sky130_fd_sc_hd__decap_4
X_1622_ input74/X _1621_/X _1614_/X _2112_/Q vssd1 vssd1 vccd1 vccd1 _1623_/B sky130_fd_sc_hd__a22o_1
X_1484_ _2070_/Q _1501_/B vssd1 vssd1 vccd1 vccd1 _1485_/A sky130_fd_sc_hd__or2_1
XTAP_189 vssd1 vccd1 sky130_fd_sc_hd__tapvpwrvgnd_1
XTAP_178 vssd1 vccd1 sky130_fd_sc_hd__tapvpwrvgnd_1
XTAP_167 vssd1 vccd1 sky130_fd_sc_hd__tapvpwrvgnd_1
X_1553_ _1567_/A _1553_/B vssd1 vssd1 vccd1 vccd1 _1554_/A sky130_fd_sc_hd__and2_1
XFILLER_54_248 vssd1 vssd1 vccd1 vccd1 sky130_fd_sc_hd__decap_4
X_2105_ _2136_/CLK _2105_/D vssd1 vssd1 vccd1 vccd1 _2105_/Q sky130_fd_sc_hd__dfxtp_1
X_2036_ _2146_/CLK _2036_/D vssd1 vssd1 vccd1 vccd1 _2036_/Q sky130_fd_sc_hd__dfxtp_1
XFILLER_62_270 vssd1 vssd1 vccd1 vccd1 sky130_fd_sc_hd__decap_4
XFILLER_22_167 vssd1 vssd1 vccd1 vccd1 sky130_fd_sc_hd__decap_8
XFILLER_10_329 vssd1 vssd1 vccd1 vccd1 sky130_fd_sc_hd__decap_8
XFILLER_77_27 vssd1 vssd1 vccd1 vccd1 sky130_fd_sc_hd__decap_12
XFILLER_77_329 vssd1 vssd1 vccd1 vccd1 sky130_fd_sc_hd__decap_6
XTAP_690 vssd1 vccd1 sky130_fd_sc_hd__tapvpwrvgnd_1
XFILLER_53_281 vssd1 vssd1 vccd1 vccd1 sky130_fd_sc_hd__decap_6
XFILLER_45_259 vssd1 vssd1 vccd1 vccd1 sky130_fd_sc_hd__decap_4
XFILLER_26_53 vssd1 vssd1 vccd1 vccd1 sky130_fd_sc_hd__fill_2
XFILLER_13_101 vssd1 vssd1 vccd1 vccd1 sky130_fd_sc_hd__decap_8
XFILLER_13_134 vssd1 vssd1 vccd1 vccd1 sky130_fd_sc_hd__decap_12
XFILLER_42_41 vssd1 vssd1 vccd1 vccd1 sky130_fd_sc_hd__decap_6
XFILLER_3_57 vssd1 vssd1 vccd1 vccd1 sky130_fd_sc_hd__decap_12
XFILLER_3_46 vssd1 vssd1 vccd1 vccd1 sky130_fd_sc_hd__decap_8
XFILLER_67_93 vssd1 vssd1 vccd1 vccd1 sky130_fd_sc_hd__decap_12
XFILLER_36_248 vssd1 vssd1 vccd1 vccd1 sky130_fd_sc_hd__decap_4
XFILLER_80_3 vssd1 vssd1 vccd1 vccd1 sky130_fd_sc_hd__decap_12
X_0984_ _1330_/C _0984_/B vssd1 vssd1 vccd1 vccd1 _0985_/A sky130_fd_sc_hd__and2b_1
X_1536_ _1536_/A vssd1 vssd1 vccd1 vccd1 _2084_/D sky130_fd_sc_hd__clkbuf_1
X_1605_ _1630_/A _1605_/B vssd1 vssd1 vccd1 vccd1 _1606_/A sky130_fd_sc_hd__and2_1
XFILLER_67_373 vssd1 vssd1 vccd1 vccd1 sky130_fd_sc_hd__decap_12
X_1467_ _1475_/A _2063_/Q _1486_/C vssd1 vssd1 vccd1 vccd1 _1468_/A sky130_fd_sc_hd__and3_1
X_1398_ _1398_/A vssd1 vssd1 vccd1 vccd1 _2035_/D sky130_fd_sc_hd__clkbuf_1
XFILLER_82_365 vssd1 vssd1 vccd1 vccd1 sky130_fd_sc_hd__decap_4
XFILLER_50_251 vssd1 vssd1 vccd1 vccd1 sky130_fd_sc_hd__fill_1
X_2019_ _2067_/CLK _2019_/D vssd1 vssd1 vccd1 vccd1 _2019_/Q sky130_fd_sc_hd__dfxtp_1
XFILLER_35_281 vssd1 vssd1 vccd1 vccd1 sky130_fd_sc_hd__fill_1
XFILLER_6_108 vssd1 vssd1 vccd1 vccd1 sky130_fd_sc_hd__decap_4
XFILLER_6_119 vssd1 vssd1 vccd1 vccd1 sky130_fd_sc_hd__decap_6
XFILLER_10_159 vssd1 vssd1 vccd1 vccd1 sky130_fd_sc_hd__decap_6
XFILLER_12_77 vssd1 vssd1 vccd1 vccd1 sky130_fd_sc_hd__decap_6
XFILLER_58_362 vssd1 vssd1 vccd1 vccd1 sky130_fd_sc_hd__fill_2
XFILLER_37_96 vssd1 vssd1 vccd1 vccd1 sky130_fd_sc_hd__fill_1
XFILLER_53_62 vssd1 vssd1 vccd1 vccd1 sky130_fd_sc_hd__decap_4
XFILLER_68_115 vssd1 vssd1 vccd1 vccd1 sky130_fd_sc_hd__decap_8
X_1321_ _1479_/A vssd1 vssd1 vccd1 vccd1 _1338_/A sky130_fd_sc_hd__clkbuf_2
XFILLER_49_373 vssd1 vssd1 vccd1 vccd1 sky130_fd_sc_hd__decap_12
X_1252_ _1252_/A _1863_/A vssd1 vssd1 vccd1 vccd1 _1252_/Y sky130_fd_sc_hd__nor2_1
XFILLER_64_365 vssd1 vssd1 vccd1 vccd1 sky130_fd_sc_hd__decap_12
XFILLER_64_321 vssd1 vssd1 vccd1 vccd1 sky130_fd_sc_hd__decap_12
X_1183_ _2257_/Q _1135_/X _1136_/X _2165_/Q _1196_/B vssd1 vssd1 vccd1 vccd1 _1183_/X
+ sky130_fd_sc_hd__a32o_1
XFILLER_32_273 vssd1 vssd1 vccd1 vccd1 sky130_fd_sc_hd__fill_1
XFILLER_59_104 vssd1 vssd1 vccd1 vccd1 sky130_fd_sc_hd__decap_8
XFILLER_58_29 vssd1 vssd1 vccd1 vccd1 sky130_fd_sc_hd__decap_12
X_1519_ _1522_/B vssd1 vssd1 vccd1 vccd1 _1682_/A sky130_fd_sc_hd__clkbuf_2
XFILLER_74_129 vssd1 vssd1 vccd1 vccd1 sky130_fd_sc_hd__fill_2
XFILLER_55_332 vssd1 vssd1 vccd1 vccd1 sky130_fd_sc_hd__decap_4
XFILLER_82_195 vssd1 vssd1 vccd1 vccd1 sky130_fd_sc_hd__fill_1
XFILLER_82_173 vssd1 vssd1 vccd1 vccd1 sky130_fd_sc_hd__decap_4
XFILLER_70_357 vssd1 vssd1 vccd1 vccd1 sky130_fd_sc_hd__decap_6
XFILLER_23_43 vssd1 vssd1 vccd1 vccd1 sky130_fd_sc_hd__decap_4
XFILLER_65_129 vssd1 vssd1 vccd1 vccd1 sky130_fd_sc_hd__decap_8
XFILLER_73_162 vssd1 vssd1 vccd1 vccd1 sky130_fd_sc_hd__decap_6
XFILLER_64_83 vssd1 vssd1 vccd1 vccd1 sky130_fd_sc_hd__fill_1
XFILLER_61_335 vssd1 vssd1 vccd1 vccd1 sky130_fd_sc_hd__fill_1
XFILLER_61_313 vssd1 vssd1 vccd1 vccd1 sky130_fd_sc_hd__decap_4
XFILLER_46_365 vssd1 vssd1 vccd1 vccd1 sky130_fd_sc_hd__decap_12
XFILLER_14_240 vssd1 vssd1 vccd1 vccd1 sky130_fd_sc_hd__decap_12
X_1870_ _1870_/A _1870_/B vssd1 vssd1 vccd1 vccd1 _1871_/A sky130_fd_sc_hd__or2_1
XFILLER_43_3 vssd1 vssd1 vccd1 vccd1 sky130_fd_sc_hd__decap_12
X_1166_ _2218_/Q _1086_/X _1090_/X _2009_/Q _1165_/X vssd1 vssd1 vccd1 vccd1 _1166_/X
+ sky130_fd_sc_hd__a221o_2
X_1304_ _1304_/A vssd1 vssd1 vccd1 vccd1 _2006_/D sky130_fd_sc_hd__clkbuf_1
XFILLER_56_118 vssd1 vssd1 vccd1 vccd1 sky130_fd_sc_hd__fill_1
XFILLER_37_332 vssd1 vssd1 vccd1 vccd1 sky130_fd_sc_hd__decap_4
X_1235_ _2200_/Q _1847_/B _1234_/X vssd1 vssd1 vccd1 vccd1 _1856_/A sky130_fd_sc_hd__o21ai_1
XFILLER_64_195 vssd1 vssd1 vccd1 vccd1 sky130_fd_sc_hd__fill_1
X_1097_ _1136_/A vssd1 vssd1 vccd1 vccd1 _1097_/X sky130_fd_sc_hd__clkbuf_2
XFILLER_52_357 vssd1 vssd1 vccd1 vccd1 sky130_fd_sc_hd__decap_6
XFILLER_69_39 vssd1 vssd1 vccd1 vccd1 sky130_fd_sc_hd__decap_12
X_1999_ _2261_/Q _1999_/B vssd1 vssd1 vccd1 vccd1 _1999_/X sky130_fd_sc_hd__or2_1
XFILLER_20_265 vssd1 vssd1 vccd1 vccd1 sky130_fd_sc_hd__fill_1
XFILLER_75_405 vssd1 vssd1 vccd1 vccd1 sky130_fd_sc_hd__fill_2
XFILLER_43_335 vssd1 vssd1 vccd1 vccd1 sky130_fd_sc_hd__fill_1
XFILLER_34_53 vssd1 vssd1 vccd1 vccd1 sky130_fd_sc_hd__decap_3
XFILLER_7_247 vssd1 vssd1 vccd1 vccd1 sky130_fd_sc_hd__decap_4
XFILLER_11_276 vssd1 vssd1 vccd1 vccd1 sky130_fd_sc_hd__decap_4
XFILLER_50_85 vssd1 vssd1 vccd1 vccd1 sky130_fd_sc_hd__decap_4
XFILLER_50_52 vssd1 vssd1 vccd1 vccd1 sky130_fd_sc_hd__decap_4
XTAP_519 vssd1 vccd1 sky130_fd_sc_hd__tapvpwrvgnd_1
XTAP_508 vssd1 vccd1 sky130_fd_sc_hd__tapvpwrvgnd_1
XFILLER_78_265 vssd1 vssd1 vccd1 vccd1 sky130_fd_sc_hd__decap_12
X_1020_ _1292_/C _1020_/B vssd1 vssd1 vccd1 vccd1 _1021_/A sky130_fd_sc_hd__and2b_1
XFILLER_46_151 vssd1 vssd1 vccd1 vccd1 sky130_fd_sc_hd__decap_4
XFILLER_75_93 vssd1 vssd1 vccd1 vccd1 sky130_fd_sc_hd__decap_12
XFILLER_61_198 vssd1 vssd1 vccd1 vccd1 sky130_fd_sc_hd__decap_4
X_1922_ _1935_/A vssd1 vssd1 vccd1 vccd1 _1922_/X sky130_fd_sc_hd__clkbuf_2
X_1784_ _1784_/A vssd1 vssd1 vccd1 vccd1 _1784_/X sky130_fd_sc_hd__clkbuf_2
X_1853_ _1853_/A _1863_/B vssd1 vssd1 vccd1 vccd1 _2198_/D sky130_fd_sc_hd__nor2_1
XFILLER_57_405 vssd1 vssd1 vccd1 vccd1 sky130_fd_sc_hd__fill_2
X_1149_ _1206_/B vssd1 vssd1 vccd1 vccd1 _1149_/X sky130_fd_sc_hd__clkbuf_2
X_2198_ _2210_/CLK _2198_/D vssd1 vssd1 vccd1 vccd1 _2198_/Q sky130_fd_sc_hd__dfxtp_1
X_1218_ _2196_/Q _1847_/B _1217_/X vssd1 vssd1 vccd1 vccd1 _1850_/A sky130_fd_sc_hd__o21ai_1
XFILLER_25_379 vssd1 vssd1 vccd1 vccd1 sky130_fd_sc_hd__decap_4
XFILLER_45_52 vssd1 vssd1 vccd1 vccd1 sky130_fd_sc_hd__decap_4
XFILLER_43_187 vssd1 vssd1 vccd1 vccd1 sky130_fd_sc_hd__decap_6
XFILLER_28_162 vssd1 vssd1 vccd1 vccd1 sky130_fd_sc_hd__decap_4
XFILLER_16_313 vssd1 vssd1 vccd1 vccd1 sky130_fd_sc_hd__fill_1
XANTENNA_6 _2261_/Q vssd1 vssd1 vccd1 vccd1 sky130_fd_sc_hd__diode_2
XFILLER_61_51 vssd1 vssd1 vccd1 vccd1 sky130_fd_sc_hd__decap_4
XFILLER_39_405 vssd1 vssd1 vccd1 vccd1 sky130_fd_sc_hd__fill_2
XTAP_349 vssd1 vccd1 sky130_fd_sc_hd__tapvpwrvgnd_1
XTAP_338 vssd1 vccd1 sky130_fd_sc_hd__tapvpwrvgnd_1
XTAP_327 vssd1 vccd1 sky130_fd_sc_hd__tapvpwrvgnd_1
XTAP_305 vssd1 vccd1 sky130_fd_sc_hd__tapvpwrvgnd_1
XTAP_316 vssd1 vccd1 sky130_fd_sc_hd__tapvpwrvgnd_1
XFILLER_66_268 vssd1 vssd1 vccd1 vccd1 sky130_fd_sc_hd__decap_4
XFILLER_66_224 vssd1 vssd1 vccd1 vccd1 sky130_fd_sc_hd__decap_4
X_1003_ _2175_/Q _2174_/Q vssd1 vssd1 vccd1 vccd1 _1004_/B sky130_fd_sc_hd__nor2_1
X_2052_ _2072_/CLK _2052_/D vssd1 vssd1 vccd1 vccd1 _2052_/Q sky130_fd_sc_hd__dfxtp_1
X_2121_ _2213_/CLK _2121_/D vssd1 vssd1 vccd1 vccd1 _2121_/Q sky130_fd_sc_hd__dfxtp_1
X_1905_ _2225_/Q _1907_/B vssd1 vssd1 vccd1 vccd1 _1905_/X sky130_fd_sc_hd__or2_1
X_1767_ _2158_/Q _1744_/X _1766_/X vssd1 vssd1 vccd1 vccd1 _2158_/D sky130_fd_sc_hd__a21o_1
X_1836_ _1127_/B _1166_/X _1167_/X _1818_/X vssd1 vssd1 vccd1 vccd1 _2188_/D sky130_fd_sc_hd__o211a_1
X_1698_ _1720_/A _1698_/B vssd1 vssd1 vccd1 vccd1 _1699_/A sky130_fd_sc_hd__and2_1
XFILLER_1_209 vssd1 vssd1 vccd1 vccd1 sky130_fd_sc_hd__decap_4
XFILLER_66_29 vssd1 vssd1 vccd1 vccd1 sky130_fd_sc_hd__decap_12
XFILLER_15_55 vssd1 vssd1 vccd1 vccd1 sky130_fd_sc_hd__fill_1
XFILLER_31_43 vssd1 vssd1 vccd1 vccd1 sky130_fd_sc_hd__decap_6
XFILLER_21_393 vssd1 vssd1 vccd1 vccd1 sky130_fd_sc_hd__decap_12
XFILLER_15_99 vssd1 vssd1 vccd1 vccd1 sky130_fd_sc_hd__decap_4
Xoutput87 _1042_/B vssd1 vssd1 vccd1 vccd1 oe[11] sky130_fd_sc_hd__buf_2
Xoutput98 _1050_/B vssd1 vssd1 vccd1 vccd1 oe[7] sky130_fd_sc_hd__buf_2
XFILLER_0_253 vssd1 vssd1 vccd1 vccd1 sky130_fd_sc_hd__fill_1