* NGSPICE file created from mkQF100Fabric.ext - technology: sky130A

* Black-box entry subcircuit for sky130_ef_sc_hd__fakediode_2 abstract view
.subckt sky130_ef_sc_hd__fakediode_2 DIODE VGND VPWR VPB VNB
.ends

* Black-box entry subcircuit for sky130_fd_sc_hd__decap_4 abstract view
.subckt sky130_fd_sc_hd__decap_4 VGND VNB VPB VPWR
.ends

* Black-box entry subcircuit for sky130_fd_sc_hd__mux2_1 abstract view
.subckt sky130_fd_sc_hd__mux2_1 A0 A1 S VGND VNB VPB VPWR X
.ends

* Black-box entry subcircuit for sky130_fd_sc_hd__decap_12 abstract view
.subckt sky130_fd_sc_hd__decap_12 VGND VNB VPB VPWR
.ends

* Black-box entry subcircuit for sky130_fd_sc_hd__and3_1 abstract view
.subckt sky130_fd_sc_hd__and3_1 A B C VGND VNB VPB VPWR X
.ends

* Black-box entry subcircuit for sky130_fd_sc_hd__buf_2 abstract view
.subckt sky130_fd_sc_hd__buf_2 A VGND VNB VPB VPWR X
.ends

* Black-box entry subcircuit for sky130_fd_sc_hd__clkinv_2 abstract view
.subckt sky130_fd_sc_hd__clkinv_2 A VGND VNB VPB VPWR Y
.ends

* Black-box entry subcircuit for sky130_fd_sc_hd__decap_6 abstract view
.subckt sky130_fd_sc_hd__decap_6 VGND VNB VPB VPWR
.ends

* Black-box entry subcircuit for sky130_fd_sc_hd__o21bai_1 abstract view
.subckt sky130_fd_sc_hd__o21bai_1 A1 A2 B1_N VGND VNB VPB VPWR Y
.ends

* Black-box entry subcircuit for sky130_fd_sc_hd__clkbuf_1 abstract view
.subckt sky130_fd_sc_hd__clkbuf_1 A VGND VNB VPB VPWR X
.ends

* Black-box entry subcircuit for sky130_fd_sc_hd__fill_1 abstract view
.subckt sky130_fd_sc_hd__fill_1 VGND VNB VPB VPWR
.ends

* Black-box entry subcircuit for sky130_fd_sc_hd__decap_8 abstract view
.subckt sky130_fd_sc_hd__decap_8 VGND VNB VPB VPWR
.ends

* Black-box entry subcircuit for sky130_fd_sc_hd__tapvpwrvgnd_1 abstract view
.subckt sky130_fd_sc_hd__tapvpwrvgnd_1 VGND VPWR
.ends

* Black-box entry subcircuit for sky130_fd_sc_hd__fill_2 abstract view
.subckt sky130_fd_sc_hd__fill_2 VGND VNB VPB VPWR
.ends

* Black-box entry subcircuit for sky130_fd_sc_hd__clkbuf_16 abstract view
.subckt sky130_fd_sc_hd__clkbuf_16 A VGND VNB VPB VPWR X
.ends

* Black-box entry subcircuit for sky130_fd_sc_hd__o31a_1 abstract view
.subckt sky130_fd_sc_hd__o31a_1 A1 A2 A3 B1 VGND VNB VPB VPWR X
.ends

* Black-box entry subcircuit for sky130_fd_sc_hd__a221o_1 abstract view
.subckt sky130_fd_sc_hd__a221o_1 A1 A2 B1 B2 C1 VGND VNB VPB VPWR X
.ends

* Black-box entry subcircuit for sky130_fd_sc_hd__and2_1 abstract view
.subckt sky130_fd_sc_hd__and2_1 A B VGND VNB VPB VPWR X
.ends

* Black-box entry subcircuit for sky130_fd_sc_hd__mux2_4 abstract view
.subckt sky130_fd_sc_hd__mux2_4 A0 A1 S VGND VNB VPB VPWR X
.ends

* Black-box entry subcircuit for sky130_fd_sc_hd__o221ai_4 abstract view
.subckt sky130_fd_sc_hd__o221ai_4 A1 A2 B1 B2 C1 VGND VNB VPB VPWR Y
.ends

* Black-box entry subcircuit for sky130_fd_sc_hd__dfxtp_1 abstract view
.subckt sky130_fd_sc_hd__dfxtp_1 CLK D VGND VNB VPB VPWR Q
.ends

* Black-box entry subcircuit for sky130_fd_sc_hd__dlymetal6s2s_1 abstract view
.subckt sky130_fd_sc_hd__dlymetal6s2s_1 A VGND VNB VPB VPWR X
.ends

* Black-box entry subcircuit for sky130_fd_sc_hd__mux2_2 abstract view
.subckt sky130_fd_sc_hd__mux2_2 A0 A1 S VGND VNB VPB VPWR X
.ends

* Black-box entry subcircuit for sky130_fd_sc_hd__decap_3 abstract view
.subckt sky130_fd_sc_hd__decap_3 VGND VNB VPB VPWR
.ends

* Black-box entry subcircuit for sky130_fd_sc_hd__nand4_1 abstract view
.subckt sky130_fd_sc_hd__nand4_1 A B C D VGND VNB VPB VPWR Y
.ends

* Black-box entry subcircuit for sky130_fd_sc_hd__o211ai_4 abstract view
.subckt sky130_fd_sc_hd__o211ai_4 A1 A2 B1 C1 VGND VNB VPB VPWR Y
.ends

* Black-box entry subcircuit for sky130_fd_sc_hd__nor2_1 abstract view
.subckt sky130_fd_sc_hd__nor2_1 A B VGND VNB VPB VPWR Y
.ends

* Black-box entry subcircuit for sky130_fd_sc_hd__a21oi_4 abstract view
.subckt sky130_fd_sc_hd__a21oi_4 A1 A2 B1 VGND VNB VPB VPWR Y
.ends

* Black-box entry subcircuit for sky130_fd_sc_hd__clkbuf_4 abstract view
.subckt sky130_fd_sc_hd__clkbuf_4 A VGND VNB VPB VPWR X
.ends

* Black-box entry subcircuit for sky130_fd_sc_hd__o2111a_1 abstract view
.subckt sky130_fd_sc_hd__o2111a_1 A1 A2 B1 C1 D1 VGND VNB VPB VPWR X
.ends

* Black-box entry subcircuit for sky130_fd_sc_hd__nand4_2 abstract view
.subckt sky130_fd_sc_hd__nand4_2 A B C D VGND VNB VPB VPWR Y
.ends

* Black-box entry subcircuit for sky130_fd_sc_hd__inv_2 abstract view
.subckt sky130_fd_sc_hd__inv_2 A VGND VNB VPB VPWR Y
.ends

* Black-box entry subcircuit for sky130_fd_sc_hd__clkbuf_2 abstract view
.subckt sky130_fd_sc_hd__clkbuf_2 A VGND VNB VPB VPWR X
.ends

* Black-box entry subcircuit for sky130_fd_sc_hd__a31o_2 abstract view
.subckt sky130_fd_sc_hd__a31o_2 A1 A2 A3 B1 VGND VNB VPB VPWR X
.ends

* Black-box entry subcircuit for sky130_fd_sc_hd__nand4_4 abstract view
.subckt sky130_fd_sc_hd__nand4_4 A B C D VGND VNB VPB VPWR Y
.ends

* Black-box entry subcircuit for sky130_fd_sc_hd__o21a_1 abstract view
.subckt sky130_fd_sc_hd__o21a_1 A1 A2 B1 VGND VNB VPB VPWR X
.ends

* Black-box entry subcircuit for sky130_fd_sc_hd__o22a_1 abstract view
.subckt sky130_fd_sc_hd__o22a_1 A1 A2 B1 B2 VGND VNB VPB VPWR X
.ends

* Black-box entry subcircuit for sky130_fd_sc_hd__a22oi_4 abstract view
.subckt sky130_fd_sc_hd__a22oi_4 A1 A2 B1 B2 VGND VNB VPB VPWR Y
.ends

* Black-box entry subcircuit for sky130_fd_sc_hd__o21ai_1 abstract view
.subckt sky130_fd_sc_hd__o21ai_1 A1 A2 B1 VGND VNB VPB VPWR Y
.ends

* Black-box entry subcircuit for sky130_fd_sc_hd__o2111ai_4 abstract view
.subckt sky130_fd_sc_hd__o2111ai_4 A1 A2 B1 C1 D1 VGND VNB VPB VPWR Y
.ends

* Black-box entry subcircuit for sky130_fd_sc_hd__and4_1 abstract view
.subckt sky130_fd_sc_hd__and4_1 A B C D VGND VNB VPB VPWR X
.ends

* Black-box entry subcircuit for sky130_fd_sc_hd__a311o_1 abstract view
.subckt sky130_fd_sc_hd__a311o_1 A1 A2 A3 B1 C1 VGND VNB VPB VPWR X
.ends

* Black-box entry subcircuit for sky130_fd_sc_hd__buf_4 abstract view
.subckt sky130_fd_sc_hd__buf_4 A VGND VNB VPB VPWR X
.ends

* Black-box entry subcircuit for sky130_fd_sc_hd__or3_1 abstract view
.subckt sky130_fd_sc_hd__or3_1 A B C VGND VNB VPB VPWR X
.ends

* Black-box entry subcircuit for sky130_fd_sc_hd__o211a_2 abstract view
.subckt sky130_fd_sc_hd__o211a_2 A1 A2 B1 C1 VGND VNB VPB VPWR X
.ends

* Black-box entry subcircuit for sky130_fd_sc_hd__a21boi_1 abstract view
.subckt sky130_fd_sc_hd__a21boi_1 A1 A2 B1_N VGND VNB VPB VPWR Y
.ends

* Black-box entry subcircuit for sky130_fd_sc_hd__or4b_1 abstract view
.subckt sky130_fd_sc_hd__or4b_1 A B C D_N VGND VNB VPB VPWR X
.ends

* Black-box entry subcircuit for sky130_fd_sc_hd__o21ai_2 abstract view
.subckt sky130_fd_sc_hd__o21ai_2 A1 A2 B1 VGND VNB VPB VPWR Y
.ends

* Black-box entry subcircuit for sky130_fd_sc_hd__mux2_8 abstract view
.subckt sky130_fd_sc_hd__mux2_8 A0 A1 S VGND VNB VPB VPWR X
.ends

* Black-box entry subcircuit for sky130_fd_sc_hd__and3_2 abstract view
.subckt sky130_fd_sc_hd__and3_2 A B C VGND VNB VPB VPWR X
.ends

* Black-box entry subcircuit for sky130_fd_sc_hd__a22oi_2 abstract view
.subckt sky130_fd_sc_hd__a22oi_2 A1 A2 B1 B2 VGND VNB VPB VPWR Y
.ends

* Black-box entry subcircuit for sky130_fd_sc_hd__o21ai_4 abstract view
.subckt sky130_fd_sc_hd__o21ai_4 A1 A2 B1 VGND VNB VPB VPWR Y
.ends

* Black-box entry subcircuit for sky130_fd_sc_hd__nand4b_4 abstract view
.subckt sky130_fd_sc_hd__nand4b_4 A_N B C D VGND VNB VPB VPWR Y
.ends

* Black-box entry subcircuit for sky130_fd_sc_hd__a21o_2 abstract view
.subckt sky130_fd_sc_hd__a21o_2 A1 A2 B1 VGND VNB VPB VPWR X
.ends

* Black-box entry subcircuit for sky130_fd_sc_hd__nor3_1 abstract view
.subckt sky130_fd_sc_hd__nor3_1 A B C VGND VNB VPB VPWR Y
.ends

* Black-box entry subcircuit for sky130_fd_sc_hd__nor3b_1 abstract view
.subckt sky130_fd_sc_hd__nor3b_1 A B C_N VGND VNB VPB VPWR Y
.ends

* Black-box entry subcircuit for sky130_fd_sc_hd__o211ai_2 abstract view
.subckt sky130_fd_sc_hd__o211ai_2 A1 A2 B1 C1 VGND VNB VPB VPWR Y
.ends

* Black-box entry subcircuit for sky130_fd_sc_hd__o311a_1 abstract view
.subckt sky130_fd_sc_hd__o311a_1 A1 A2 A3 B1 C1 VGND VNB VPB VPWR X
.ends

* Black-box entry subcircuit for sky130_fd_sc_hd__or4_1 abstract view
.subckt sky130_fd_sc_hd__or4_1 A B C D VGND VNB VPB VPWR X
.ends

* Black-box entry subcircuit for sky130_fd_sc_hd__a31oi_4 abstract view
.subckt sky130_fd_sc_hd__a31oi_4 A1 A2 A3 B1 VGND VNB VPB VPWR Y
.ends

* Black-box entry subcircuit for sky130_fd_sc_hd__a41oi_4 abstract view
.subckt sky130_fd_sc_hd__a41oi_4 A1 A2 A3 A4 B1 VGND VNB VPB VPWR Y
.ends

* Black-box entry subcircuit for sky130_fd_sc_hd__o221ai_1 abstract view
.subckt sky130_fd_sc_hd__o221ai_1 A1 A2 B1 B2 C1 VGND VNB VPB VPWR Y
.ends

* Black-box entry subcircuit for sky130_fd_sc_hd__o211a_1 abstract view
.subckt sky130_fd_sc_hd__o211a_1 A1 A2 B1 C1 VGND VNB VPB VPWR X
.ends

* Black-box entry subcircuit for sky130_fd_sc_hd__a21boi_2 abstract view
.subckt sky130_fd_sc_hd__a21boi_2 A1 A2 B1_N VGND VNB VPB VPWR Y
.ends

* Black-box entry subcircuit for sky130_fd_sc_hd__a21oi_1 abstract view
.subckt sky130_fd_sc_hd__a21oi_1 A1 A2 B1 VGND VNB VPB VPWR Y
.ends

* Black-box entry subcircuit for sky130_fd_sc_hd__a211o_1 abstract view
.subckt sky130_fd_sc_hd__a211o_1 A1 A2 B1 C1 VGND VNB VPB VPWR X
.ends

* Black-box entry subcircuit for sky130_fd_sc_hd__o2111ai_2 abstract view
.subckt sky130_fd_sc_hd__o2111ai_2 A1 A2 B1 C1 D1 VGND VNB VPB VPWR Y
.ends

* Black-box entry subcircuit for sky130_fd_sc_hd__or3_4 abstract view
.subckt sky130_fd_sc_hd__or3_4 A B C VGND VNB VPB VPWR X
.ends

* Black-box entry subcircuit for sky130_fd_sc_hd__dfxtp_4 abstract view
.subckt sky130_fd_sc_hd__dfxtp_4 CLK D VGND VNB VPB VPWR Q
.ends

* Black-box entry subcircuit for sky130_fd_sc_hd__o2111a_2 abstract view
.subckt sky130_fd_sc_hd__o2111a_2 A1 A2 B1 C1 D1 VGND VNB VPB VPWR X
.ends

* Black-box entry subcircuit for sky130_fd_sc_hd__conb_1 abstract view
.subckt sky130_fd_sc_hd__conb_1 VGND VNB VPB VPWR HI LO
.ends

* Black-box entry subcircuit for sky130_fd_sc_hd__nand3_1 abstract view
.subckt sky130_fd_sc_hd__nand3_1 A B C VGND VNB VPB VPWR Y
.ends

* Black-box entry subcircuit for sky130_fd_sc_hd__nor2_2 abstract view
.subckt sky130_fd_sc_hd__nor2_2 A B VGND VNB VPB VPWR Y
.ends

* Black-box entry subcircuit for sky130_fd_sc_hd__dfxtp_2 abstract view
.subckt sky130_fd_sc_hd__dfxtp_2 CLK D VGND VNB VPB VPWR Q
.ends

* Black-box entry subcircuit for sky130_fd_sc_hd__a31oi_2 abstract view
.subckt sky130_fd_sc_hd__a31oi_2 A1 A2 A3 B1 VGND VNB VPB VPWR Y
.ends

* Black-box entry subcircuit for sky130_fd_sc_hd__a21boi_4 abstract view
.subckt sky130_fd_sc_hd__a21boi_4 A1 A2 B1_N VGND VNB VPB VPWR Y
.ends

* Black-box entry subcircuit for sky130_fd_sc_hd__nand2_1 abstract view
.subckt sky130_fd_sc_hd__nand2_1 A B VGND VNB VPB VPWR Y
.ends

* Black-box entry subcircuit for sky130_fd_sc_hd__a21oi_2 abstract view
.subckt sky130_fd_sc_hd__a21oi_2 A1 A2 B1 VGND VNB VPB VPWR Y
.ends

* Black-box entry subcircuit for sky130_fd_sc_hd__o22ai_4 abstract view
.subckt sky130_fd_sc_hd__o22ai_4 A1 A2 B1 B2 VGND VNB VPB VPWR Y
.ends

* Black-box entry subcircuit for sky130_fd_sc_hd__o2111ai_1 abstract view
.subckt sky130_fd_sc_hd__o2111ai_1 A1 A2 B1 C1 D1 VGND VNB VPB VPWR Y
.ends

* Black-box entry subcircuit for sky130_fd_sc_hd__nor2_4 abstract view
.subckt sky130_fd_sc_hd__nor2_4 A B VGND VNB VPB VPWR Y
.ends

* Black-box entry subcircuit for sky130_fd_sc_hd__a2bb2oi_1 abstract view
.subckt sky130_fd_sc_hd__a2bb2oi_1 A1_N A2_N B1 B2 VGND VNB VPB VPWR Y
.ends

* Black-box entry subcircuit for sky130_fd_sc_hd__o221a_1 abstract view
.subckt sky130_fd_sc_hd__o221a_1 A1 A2 B1 B2 C1 VGND VNB VPB VPWR X
.ends

* Black-box entry subcircuit for sky130_fd_sc_hd__o21a_4 abstract view
.subckt sky130_fd_sc_hd__o21a_4 A1 A2 B1 VGND VNB VPB VPWR X
.ends

* Black-box entry subcircuit for sky130_fd_sc_hd__a31o_1 abstract view
.subckt sky130_fd_sc_hd__a31o_1 A1 A2 A3 B1 VGND VNB VPB VPWR X
.ends

* Black-box entry subcircuit for sky130_fd_sc_hd__o21bai_2 abstract view
.subckt sky130_fd_sc_hd__o21bai_2 A1 A2 B1_N VGND VNB VPB VPWR Y
.ends

* Black-box entry subcircuit for sky130_fd_sc_hd__a21o_1 abstract view
.subckt sky130_fd_sc_hd__a21o_1 A1 A2 B1 VGND VNB VPB VPWR X
.ends

* Black-box entry subcircuit for sky130_fd_sc_hd__o21bai_4 abstract view
.subckt sky130_fd_sc_hd__o21bai_4 A1 A2 B1_N VGND VNB VPB VPWR Y
.ends

* Black-box entry subcircuit for sky130_fd_sc_hd__nand4b_2 abstract view
.subckt sky130_fd_sc_hd__nand4b_2 A_N B C D VGND VNB VPB VPWR Y
.ends

* Black-box entry subcircuit for sky130_fd_sc_hd__and4bb_1 abstract view
.subckt sky130_fd_sc_hd__and4bb_1 A_N B_N C D VGND VNB VPB VPWR X
.ends

* Black-box entry subcircuit for sky130_fd_sc_hd__buf_6 abstract view
.subckt sky130_fd_sc_hd__buf_6 A VGND VNB VPB VPWR X
.ends

* Black-box entry subcircuit for sky130_fd_sc_hd__o221a_2 abstract view
.subckt sky130_fd_sc_hd__o221a_2 A1 A2 B1 B2 C1 VGND VNB VPB VPWR X
.ends

* Black-box entry subcircuit for sky130_fd_sc_hd__o21a_2 abstract view
.subckt sky130_fd_sc_hd__o21a_2 A1 A2 B1 VGND VNB VPB VPWR X
.ends

* Black-box entry subcircuit for sky130_fd_sc_hd__clkbuf_8 abstract view
.subckt sky130_fd_sc_hd__clkbuf_8 A VGND VNB VPB VPWR X
.ends

* Black-box entry subcircuit for sky130_fd_sc_hd__o31ai_4 abstract view
.subckt sky130_fd_sc_hd__o31ai_4 A1 A2 A3 B1 VGND VNB VPB VPWR Y
.ends

* Black-box entry subcircuit for sky130_fd_sc_hd__nand3b_4 abstract view
.subckt sky130_fd_sc_hd__nand3b_4 A_N B C VGND VNB VPB VPWR Y
.ends

* Black-box entry subcircuit for sky130_fd_sc_hd__o31ai_2 abstract view
.subckt sky130_fd_sc_hd__o31ai_2 A1 A2 A3 B1 VGND VNB VPB VPWR Y
.ends

* Black-box entry subcircuit for sky130_fd_sc_hd__a211oi_1 abstract view
.subckt sky130_fd_sc_hd__a211oi_1 A1 A2 B1 C1 VGND VNB VPB VPWR Y
.ends

* Black-box entry subcircuit for sky130_fd_sc_hd__o31a_4 abstract view
.subckt sky130_fd_sc_hd__o31a_4 A1 A2 A3 B1 VGND VNB VPB VPWR X
.ends

* Black-box entry subcircuit for sky130_fd_sc_hd__o211ai_1 abstract view
.subckt sky130_fd_sc_hd__o211ai_1 A1 A2 B1 C1 VGND VNB VPB VPWR Y
.ends

* Black-box entry subcircuit for sky130_fd_sc_hd__nand3b_2 abstract view
.subckt sky130_fd_sc_hd__nand3b_2 A_N B C VGND VNB VPB VPWR Y
.ends

* Black-box entry subcircuit for sky130_fd_sc_hd__nand3_4 abstract view
.subckt sky130_fd_sc_hd__nand3_4 A B C VGND VNB VPB VPWR Y
.ends

* Black-box entry subcircuit for sky130_fd_sc_hd__nor3b_4 abstract view
.subckt sky130_fd_sc_hd__nor3b_4 A B C_N VGND VNB VPB VPWR Y
.ends

* Black-box entry subcircuit for sky130_fd_sc_hd__nand4b_1 abstract view
.subckt sky130_fd_sc_hd__nand4b_1 A_N B C D VGND VNB VPB VPWR Y
.ends

* Black-box entry subcircuit for sky130_fd_sc_hd__and4b_1 abstract view
.subckt sky130_fd_sc_hd__and4b_1 A_N B C D VGND VNB VPB VPWR X
.ends

* Black-box entry subcircuit for sky130_fd_sc_hd__and4_2 abstract view
.subckt sky130_fd_sc_hd__and4_2 A B C D VGND VNB VPB VPWR X
.ends

* Black-box entry subcircuit for sky130_fd_sc_hd__nand2_4 abstract view
.subckt sky130_fd_sc_hd__nand2_4 A B VGND VNB VPB VPWR Y
.ends

* Black-box entry subcircuit for sky130_fd_sc_hd__a311oi_1 abstract view
.subckt sky130_fd_sc_hd__a311oi_1 A1 A2 A3 B1 C1 VGND VNB VPB VPWR Y
.ends

* Black-box entry subcircuit for sky130_fd_sc_hd__a311oi_2 abstract view
.subckt sky130_fd_sc_hd__a311oi_2 A1 A2 A3 B1 C1 VGND VNB VPB VPWR Y
.ends

* Black-box entry subcircuit for sky130_fd_sc_hd__nand3_2 abstract view
.subckt sky130_fd_sc_hd__nand3_2 A B C VGND VNB VPB VPWR Y
.ends

* Black-box entry subcircuit for sky130_fd_sc_hd__o31a_2 abstract view
.subckt sky130_fd_sc_hd__o31a_2 A1 A2 A3 B1 VGND VNB VPB VPWR X
.ends

* Black-box entry subcircuit for sky130_fd_sc_hd__a22o_1 abstract view
.subckt sky130_fd_sc_hd__a22o_1 A1 A2 B1 B2 VGND VNB VPB VPWR X
.ends

* Black-box entry subcircuit for sky130_fd_sc_hd__a2bb2o_1 abstract view
.subckt sky130_fd_sc_hd__a2bb2o_1 A1_N A2_N B1 B2 VGND VNB VPB VPWR X
.ends

.subckt mkQF100Fabric CLK RST_N cpu_ack_o cpu_adr_i[0] cpu_adr_i[10] cpu_adr_i[11]
+ cpu_adr_i[12] cpu_adr_i[13] cpu_adr_i[14] cpu_adr_i[15] cpu_adr_i[16] cpu_adr_i[17]
+ cpu_adr_i[18] cpu_adr_i[19] cpu_adr_i[1] cpu_adr_i[20] cpu_adr_i[21] cpu_adr_i[22]
+ cpu_adr_i[23] cpu_adr_i[24] cpu_adr_i[25] cpu_adr_i[26] cpu_adr_i[27] cpu_adr_i[28]
+ cpu_adr_i[29] cpu_adr_i[2] cpu_adr_i[30] cpu_adr_i[31] cpu_adr_i[3] cpu_adr_i[4]
+ cpu_adr_i[5] cpu_adr_i[6] cpu_adr_i[7] cpu_adr_i[8] cpu_adr_i[9] cpu_cyc_i cpu_dat_i[0]
+ cpu_dat_i[10] cpu_dat_i[11] cpu_dat_i[12] cpu_dat_i[13] cpu_dat_i[14] cpu_dat_i[15]
+ cpu_dat_i[16] cpu_dat_i[17] cpu_dat_i[18] cpu_dat_i[19] cpu_dat_i[1] cpu_dat_i[20]
+ cpu_dat_i[21] cpu_dat_i[22] cpu_dat_i[23] cpu_dat_i[24] cpu_dat_i[25] cpu_dat_i[26]
+ cpu_dat_i[27] cpu_dat_i[28] cpu_dat_i[29] cpu_dat_i[2] cpu_dat_i[30] cpu_dat_i[31]
+ cpu_dat_i[3] cpu_dat_i[4] cpu_dat_i[5] cpu_dat_i[6] cpu_dat_i[7] cpu_dat_i[8] cpu_dat_i[9]
+ cpu_dat_o[0] cpu_dat_o[10] cpu_dat_o[11] cpu_dat_o[12] cpu_dat_o[13] cpu_dat_o[14]
+ cpu_dat_o[15] cpu_dat_o[16] cpu_dat_o[17] cpu_dat_o[18] cpu_dat_o[19] cpu_dat_o[1]
+ cpu_dat_o[20] cpu_dat_o[21] cpu_dat_o[22] cpu_dat_o[23] cpu_dat_o[24] cpu_dat_o[25]
+ cpu_dat_o[26] cpu_dat_o[27] cpu_dat_o[28] cpu_dat_o[29] cpu_dat_o[2] cpu_dat_o[30]
+ cpu_dat_o[31] cpu_dat_o[3] cpu_dat_o[4] cpu_dat_o[5] cpu_dat_o[6] cpu_dat_o[7] cpu_dat_o[8]
+ cpu_dat_o[9] cpu_err_o cpu_rty_o cpu_sel_i[0] cpu_sel_i[1] cpu_sel_i[2] cpu_sel_i[3]
+ cpu_stb_i cpu_we_i gpio_ack_i gpio_adr_o[0] gpio_adr_o[10] gpio_adr_o[11] gpio_adr_o[12]
+ gpio_adr_o[13] gpio_adr_o[14] gpio_adr_o[15] gpio_adr_o[16] gpio_adr_o[17] gpio_adr_o[18]
+ gpio_adr_o[19] gpio_adr_o[1] gpio_adr_o[20] gpio_adr_o[21] gpio_adr_o[22] gpio_adr_o[23]
+ gpio_adr_o[24] gpio_adr_o[25] gpio_adr_o[26] gpio_adr_o[27] gpio_adr_o[28] gpio_adr_o[29]
+ gpio_adr_o[2] gpio_adr_o[30] gpio_adr_o[31] gpio_adr_o[3] gpio_adr_o[4] gpio_adr_o[5]
+ gpio_adr_o[6] gpio_adr_o[7] gpio_adr_o[8] gpio_adr_o[9] gpio_cyc_o gpio_dat_i[0]
+ gpio_dat_i[10] gpio_dat_i[11] gpio_dat_i[12] gpio_dat_i[13] gpio_dat_i[14] gpio_dat_i[15]
+ gpio_dat_i[16] gpio_dat_i[17] gpio_dat_i[18] gpio_dat_i[19] gpio_dat_i[1] gpio_dat_i[20]
+ gpio_dat_i[21] gpio_dat_i[22] gpio_dat_i[23] gpio_dat_i[24] gpio_dat_i[25] gpio_dat_i[26]
+ gpio_dat_i[27] gpio_dat_i[28] gpio_dat_i[29] gpio_dat_i[2] gpio_dat_i[30] gpio_dat_i[31]
+ gpio_dat_i[3] gpio_dat_i[4] gpio_dat_i[5] gpio_dat_i[6] gpio_dat_i[7] gpio_dat_i[8]
+ gpio_dat_i[9] gpio_dat_o[0] gpio_dat_o[10] gpio_dat_o[11] gpio_dat_o[12] gpio_dat_o[13]
+ gpio_dat_o[14] gpio_dat_o[15] gpio_dat_o[16] gpio_dat_o[17] gpio_dat_o[18] gpio_dat_o[19]
+ gpio_dat_o[1] gpio_dat_o[20] gpio_dat_o[21] gpio_dat_o[22] gpio_dat_o[23] gpio_dat_o[24]
+ gpio_dat_o[25] gpio_dat_o[26] gpio_dat_o[27] gpio_dat_o[28] gpio_dat_o[29] gpio_dat_o[2]
+ gpio_dat_o[30] gpio_dat_o[31] gpio_dat_o[3] gpio_dat_o[4] gpio_dat_o[5] gpio_dat_o[6]
+ gpio_dat_o[7] gpio_dat_o[8] gpio_dat_o[9] gpio_err_i gpio_rty_i gpio_sel_o[0] gpio_sel_o[1]
+ gpio_sel_o[2] gpio_sel_o[3] gpio_stb_o gpio_we_o spi_ack_i spi_adr_o[0] spi_adr_o[10]
+ spi_adr_o[11] spi_adr_o[12] spi_adr_o[13] spi_adr_o[14] spi_adr_o[15] spi_adr_o[16]
+ spi_adr_o[17] spi_adr_o[18] spi_adr_o[19] spi_adr_o[1] spi_adr_o[20] spi_adr_o[21]
+ spi_adr_o[22] spi_adr_o[23] spi_adr_o[24] spi_adr_o[25] spi_adr_o[26] spi_adr_o[27]
+ spi_adr_o[28] spi_adr_o[29] spi_adr_o[2] spi_adr_o[30] spi_adr_o[31] spi_adr_o[3]
+ spi_adr_o[4] spi_adr_o[5] spi_adr_o[6] spi_adr_o[7] spi_adr_o[8] spi_adr_o[9] spi_cyc_o
+ spi_dat_i[0] spi_dat_i[10] spi_dat_i[11] spi_dat_i[12] spi_dat_i[13] spi_dat_i[14]
+ spi_dat_i[15] spi_dat_i[16] spi_dat_i[17] spi_dat_i[18] spi_dat_i[19] spi_dat_i[1]
+ spi_dat_i[20] spi_dat_i[21] spi_dat_i[22] spi_dat_i[23] spi_dat_i[24] spi_dat_i[25]
+ spi_dat_i[26] spi_dat_i[27] spi_dat_i[28] spi_dat_i[29] spi_dat_i[2] spi_dat_i[30]
+ spi_dat_i[31] spi_dat_i[3] spi_dat_i[4] spi_dat_i[5] spi_dat_i[6] spi_dat_i[7] spi_dat_i[8]
+ spi_dat_i[9] spi_dat_o[0] spi_dat_o[10] spi_dat_o[11] spi_dat_o[12] spi_dat_o[13]
+ spi_dat_o[14] spi_dat_o[15] spi_dat_o[16] spi_dat_o[17] spi_dat_o[18] spi_dat_o[19]
+ spi_dat_o[1] spi_dat_o[20] spi_dat_o[21] spi_dat_o[22] spi_dat_o[23] spi_dat_o[24]
+ spi_dat_o[25] spi_dat_o[26] spi_dat_o[27] spi_dat_o[28] spi_dat_o[29] spi_dat_o[2]
+ spi_dat_o[30] spi_dat_o[31] spi_dat_o[3] spi_dat_o[4] spi_dat_o[5] spi_dat_o[6]
+ spi_dat_o[7] spi_dat_o[8] spi_dat_o[9] spi_err_i spi_rty_i spi_sel_o[0] spi_sel_o[1]
+ spi_sel_o[2] spi_sel_o[3] spi_stb_o spi_we_o vccd1 vssd1
XANTENNA__2479__B1 _2473_/Y vssd1 vccd1 vccd1 vssd1 sky130_ef_sc_hd__fakediode_2
XFILLER_67_542 vssd1 vssd1 vccd1 vccd1 sky130_fd_sc_hd__decap_4
XANTENNA__4357__D _4357_/D vssd1 vccd1 vccd1 vssd1 sky130_ef_sc_hd__fakediode_2
XANTENNA__3691__A2 _3351_/X vssd1 vccd1 vccd1 vssd1 sky130_ef_sc_hd__fakediode_2
XFILLER_95_862 vssd1 vssd1 vccd1 vccd1 sky130_fd_sc_hd__decap_4
X_3155_ _3174_/B _4182_/Q _3206_/A vssd1 vssd1 vccd1 vccd1 _3572_/C sky130_fd_sc_hd__mux2_1
XANTENNA__2158__C _2158_/C vssd1 vccd1 vccd1 vssd1 sky130_ef_sc_hd__fakediode_2
XFILLER_27_417 vssd1 vssd1 vccd1 vccd1 sky130_fd_sc_hd__decap_12
X_3086_ _3099_/A _3089_/B _3609_/A vssd1 vssd1 vccd1 vccd1 _3087_/A sky130_fd_sc_hd__and3_1
XFILLER_94_394 vssd1 vssd1 vccd1 vccd1 sky130_fd_sc_hd__decap_4
XFILLER_82_523 vssd1 vssd1 vccd1 vccd1 sky130_fd_sc_hd__decap_4
X_2106_ _2106_/A vssd1 vssd1 vccd1 vccd1 _2129_/B sky130_fd_sc_hd__buf_2
XANTENNA__2455__A _4261_/Q vssd1 vccd1 vccd1 vssd1 sky130_ef_sc_hd__fakediode_2
XANTENNA__3979__B1 _2489_/Y vssd1 vccd1 vccd1 vssd1 sky130_ef_sc_hd__fakediode_2
XFILLER_54_269 vssd1 vssd1 vccd1 vccd1 sky130_fd_sc_hd__decap_4
XFILLER_54_247 vssd1 vssd1 vccd1 vccd1 sky130_fd_sc_hd__decap_4
X_2037_ _2037_/A vssd1 vssd1 vccd1 vccd1 _2038_/A sky130_fd_sc_hd__clkinv_2
XFILLER_36_973 vssd1 vssd1 vccd1 vccd1 sky130_fd_sc_hd__decap_6
XFILLER_51_921 vssd1 vssd1 vccd1 vccd1 sky130_fd_sc_hd__decap_12
XFILLER_35_461 vssd1 vssd1 vccd1 vccd1 sky130_fd_sc_hd__decap_12
XANTENNA__4092__D _4092_/D vssd1 vccd1 vccd1 vssd1 sky130_ef_sc_hd__fakediode_2
XFILLER_51_965 vssd1 vssd1 vccd1 vccd1 sky130_fd_sc_hd__decap_12
XFILLER_22_133 vssd1 vssd1 vccd1 vccd1 sky130_fd_sc_hd__decap_6
XFILLER_35_1009 vssd1 vssd1 vccd1 vccd1 sky130_fd_sc_hd__decap_12
X_3988_ _3952_/X _3955_/X _2569_/Y vssd1 vssd1 vccd1 vccd1 _4379_/D sky130_fd_sc_hd__o21bai_1
X_2939_ _2939_/A vssd1 vssd1 vccd1 vccd1 _2939_/X sky130_fd_sc_hd__clkbuf_1
XANTENNA__2403__B1 _2239_/Y vssd1 vccd1 vccd1 vssd1 sky130_ef_sc_hd__fakediode_2
XFILLER_50_486 vssd1 vssd1 vccd1 vccd1 sky130_fd_sc_hd__decap_4
XFILLER_22_177 vssd1 vssd1 vccd1 vccd1 sky130_fd_sc_hd__decap_12
XANTENNA__3717__C _3721_/C vssd1 vccd1 vccd1 vssd1 sky130_ef_sc_hd__fakediode_2
XANTENNA__3286__A _3328_/B vssd1 vccd1 vccd1 vssd1 sky130_ef_sc_hd__fakediode_2
XANTENNA__2954__A1 _4009_/Q vssd1 vccd1 vccd1 vssd1 sky130_ef_sc_hd__fakediode_2
XANTENNA__4108__CLK _4284_/CLK vssd1 vccd1 vccd1 vssd1 sky130_ef_sc_hd__fakediode_2
XFILLER_7_7 vssd1 vssd1 vccd1 vccd1 sky130_fd_sc_hd__decap_4
XFILLER_81_1007 vssd1 vssd1 vccd1 vccd1 sky130_fd_sc_hd__fill_1
XANTENNA__4258__CLK _4262_/CLK vssd1 vccd1 vccd1 vssd1 sky130_ef_sc_hd__fakediode_2
XANTENNA__3131__A1 _4210_/Q vssd1 vccd1 vccd1 vssd1 sky130_ef_sc_hd__fakediode_2
XFILLER_86_851 vssd1 vssd1 vccd1 vccd1 sky130_fd_sc_hd__decap_8
XANTENNA__4267__D _4267_/D vssd1 vccd1 vccd1 vssd1 sky130_ef_sc_hd__fakediode_2
XANTENNA_input127_A spi_dat_i[26] vssd1 vccd1 vccd1 vssd1 sky130_ef_sc_hd__fakediode_2
XFILLER_46_737 vssd1 vssd1 vccd1 vccd1 sky130_fd_sc_hd__decap_12
XFILLER_45_225 vssd1 vssd1 vccd1 vccd1 sky130_fd_sc_hd__decap_12
XTAP_1800 vssd1 vccd1 sky130_fd_sc_hd__tapvpwrvgnd_1
XANTENNA__2365__A _4257_/Q vssd1 vccd1 vccd1 vssd1 sky130_ef_sc_hd__fakediode_2
XFILLER_73_578 vssd1 vssd1 vccd1 vccd1 sky130_fd_sc_hd__decap_4
XFILLER_73_556 vssd1 vssd1 vccd1 vccd1 sky130_fd_sc_hd__decap_4
XFILLER_45_258 vssd1 vssd1 vccd1 vccd1 sky130_fd_sc_hd__fill_1
XFILLER_26_41 vssd1 vssd1 vccd1 vccd1 sky130_fd_sc_hd__decap_12
XFILLER_27_951 vssd1 vssd1 vccd1 vccd1 sky130_fd_sc_hd__fill_1
XTAP_1833 vssd1 vccd1 sky130_fd_sc_hd__tapvpwrvgnd_1
XTAP_1811 vssd1 vccd1 sky130_fd_sc_hd__tapvpwrvgnd_1
XTAP_1822 vssd1 vccd1 sky130_fd_sc_hd__tapvpwrvgnd_1
XFILLER_61_729 vssd1 vssd1 vccd1 vccd1 sky130_fd_sc_hd__fill_1
XFILLER_60_228 vssd1 vssd1 vccd1 vccd1 sky130_fd_sc_hd__decap_4
XFILLER_60_206 vssd1 vssd1 vccd1 vccd1 sky130_fd_sc_hd__fill_2
XFILLER_54_781 vssd1 vssd1 vccd1 vccd1 sky130_fd_sc_hd__decap_12
XFILLER_14_601 vssd1 vssd1 vccd1 vccd1 sky130_fd_sc_hd__decap_12
XTAP_1866 vssd1 vccd1 sky130_fd_sc_hd__tapvpwrvgnd_1
XTAP_1855 vssd1 vccd1 sky130_fd_sc_hd__tapvpwrvgnd_1
XTAP_1844 vssd1 vccd1 sky130_fd_sc_hd__tapvpwrvgnd_1
XANTENNA__2642__B1 _4002_/A vssd1 vccd1 vccd1 vssd1 sky130_ef_sc_hd__fakediode_2
XANTENNA__2084__B _2084_/B vssd1 vccd1 vccd1 vssd1 sky130_ef_sc_hd__fakediode_2
XFILLER_13_111 vssd1 vssd1 vccd1 vccd1 sky130_fd_sc_hd__fill_1
XFILLER_14_645 vssd1 vssd1 vccd1 vccd1 sky130_fd_sc_hd__decap_12
XFILLER_26_85 vssd1 vssd1 vccd1 vccd1 sky130_fd_sc_hd__decap_12
XTAP_1899 vssd1 vccd1 sky130_fd_sc_hd__tapvpwrvgnd_1
XTAP_1888 vssd1 vccd1 sky130_fd_sc_hd__tapvpwrvgnd_1
XTAP_1877 vssd1 vccd1 sky130_fd_sc_hd__tapvpwrvgnd_1
XFILLER_41_453 vssd1 vssd1 vccd1 vccd1 sky130_fd_sc_hd__decap_4
XANTENNA_input92_A gpio_dat_i[26] vssd1 vccd1 vccd1 vssd1 sky130_ef_sc_hd__fakediode_2
XFILLER_9_137 vssd1 vssd1 vccd1 vccd1 sky130_fd_sc_hd__decap_12
XANTENNA__2812__B _2812_/B vssd1 vccd1 vccd1 vssd1 sky130_ef_sc_hd__fakediode_2
XANTENNA__3196__A _3196_/A vssd1 vccd1 vccd1 vssd1 sky130_ef_sc_hd__fakediode_2
XANTENNA__2945__A1 input67/X vssd1 vccd1 vccd1 vssd1 sky130_ef_sc_hd__fakediode_2
XFILLER_6_811 vssd1 vssd1 vccd1 vccd1 sky130_fd_sc_hd__fill_1
XFILLER_42_73 vssd1 vssd1 vccd1 vccd1 sky130_fd_sc_hd__decap_8
XANTENNA_output179_A _2996_/X vssd1 vccd1 vccd1 vssd1 sky130_ef_sc_hd__fakediode_2
XANTENNA__2173__A2 _2001_/X vssd1 vccd1 vccd1 vssd1 sky130_ef_sc_hd__fakediode_2
XFILLER_96_615 vssd1 vssd1 vccd1 vccd1 sky130_fd_sc_hd__fill_1
XANTENNA__4177__D _4177_/D vssd1 vccd1 vccd1 vssd1 sky130_ef_sc_hd__fakediode_2
XFILLER_77_873 vssd1 vssd1 vccd1 vccd1 sky130_fd_sc_hd__decap_4
XFILLER_3_1007 vssd1 vssd1 vccd1 vccd1 sky130_fd_sc_hd__fill_1
XFILLER_91_320 vssd1 vssd1 vccd1 vccd1 sky130_fd_sc_hd__decap_4
Xclkbuf_leaf_6_CLK clkbuf_2_1_0_CLK/X vssd1 vssd1 vccd1 vccd1 _4389_/CLK sky130_fd_sc_hd__clkbuf_16
XFILLER_64_523 vssd1 vssd1 vccd1 vccd1 sky130_fd_sc_hd__decap_4
XANTENNA__2881__A0 _3850_/A vssd1 vccd1 vccd1 vssd1 sky130_ef_sc_hd__fakediode_2
XFILLER_97_1047 vssd1 vssd1 vccd1 vccd1 sky130_fd_sc_hd__decap_4
XFILLER_92_854 vssd1 vssd1 vccd1 vccd1 sky130_fd_sc_hd__decap_4
XANTENNA__2275__A _2412_/A vssd1 vccd1 vccd1 vssd1 sky130_ef_sc_hd__fakediode_2
XFILLER_18_973 vssd1 vssd1 vccd1 vccd1 sky130_fd_sc_hd__decap_6
XFILLER_91_397 vssd1 vssd1 vccd1 vccd1 sky130_fd_sc_hd__decap_4
XFILLER_52_729 vssd1 vssd1 vccd1 vccd1 sky130_fd_sc_hd__decap_12
XFILLER_17_461 vssd1 vssd1 vccd1 vccd1 sky130_fd_sc_hd__decap_12
XFILLER_33_921 vssd1 vssd1 vccd1 vccd1 sky130_fd_sc_hd__decap_12
XANTENNA__2633__B1 _2469_/A vssd1 vccd1 vccd1 vssd1 sky130_ef_sc_hd__fakediode_2
X_3911_ _2121_/X _2201_/X _1994_/X _4336_/Q vssd1 vssd1 vccd1 vccd1 _3911_/X sky130_fd_sc_hd__o31a_1
XFILLER_33_965 vssd1 vssd1 vccd1 vccd1 sky130_fd_sc_hd__decap_12
XFILLER_60_784 vssd1 vssd1 vccd1 vccd1 sky130_fd_sc_hd__decap_4
X_3842_ _3842_/A vssd1 vssd1 vccd1 vccd1 _4307_/D sky130_fd_sc_hd__clkbuf_1
XFILLER_32_475 vssd1 vssd1 vccd1 vccd1 sky130_fd_sc_hd__fill_1
XFILLER_20_637 vssd1 vssd1 vccd1 vccd1 sky130_fd_sc_hd__decap_6
XANTENNA__2722__B _4131_/Q vssd1 vccd1 vccd1 vssd1 sky130_ef_sc_hd__fakediode_2
X_3773_ _4272_/Q _3767_/X _3771_/X input87/X _3772_/X vssd1 vssd1 vccd1 vccd1 _4272_/D
+ sky130_fd_sc_hd__a221o_1
XANTENNA__2936__A1 _4041_/Q vssd1 vccd1 vccd1 vssd1 sky130_ef_sc_hd__fakediode_2
XFILLER_9_671 vssd1 vssd1 vccd1 vccd1 sky130_fd_sc_hd__fill_1
X_2724_ _2726_/A _4132_/Q vssd1 vssd1 vccd1 vccd1 _2725_/A sky130_fd_sc_hd__and2_1
X_2655_ _3882_/C _4044_/Q _2950_/S vssd1 vssd1 vccd1 vccd1 _3271_/B sky130_fd_sc_hd__mux2_4
XANTENNA__3834__A _3847_/A vssd1 vccd1 vccd1 vssd1 sky130_ef_sc_hd__fakediode_2
X_2586_ _2481_/X _2501_/X _2429_/X _2430_/X _4381_/Q vssd1 vssd1 vccd1 vccd1 _2586_/Y
+ sky130_fd_sc_hd__o221ai_4
X_4325_ _4346_/CLK _4325_/D vssd1 vssd1 vccd1 vccd1 _4325_/Q sky130_fd_sc_hd__dfxtp_1
XANTENNA__2164__A2 _2160_/X vssd1 vccd1 vccd1 vssd1 sky130_ef_sc_hd__fakediode_2
XFILLER_101_403 vssd1 vssd1 vccd1 vccd1 sky130_fd_sc_hd__decap_4
XFILLER_87_637 vssd1 vssd1 vccd1 vccd1 sky130_fd_sc_hd__decap_12
XFILLER_87_615 vssd1 vssd1 vccd1 vccd1 sky130_fd_sc_hd__fill_1
XANTENNA__3900__A3 _1998_/B vssd1 vccd1 vccd1 vssd1 sky130_ef_sc_hd__fakediode_2
XFILLER_101_436 vssd1 vssd1 vccd1 vccd1 sky130_fd_sc_hd__decap_4
X_4256_ _4284_/CLK _4256_/D vssd1 vssd1 vccd1 vccd1 _4256_/Q sky130_fd_sc_hd__dfxtp_1
XFILLER_86_136 vssd1 vssd1 vccd1 vccd1 sky130_fd_sc_hd__decap_4
X_4187_ _4225_/CLK _4187_/D vssd1 vssd1 vccd1 vccd1 _4187_/Q sky130_fd_sc_hd__dfxtp_1
XFILLER_67_361 vssd1 vssd1 vccd1 vccd1 sky130_fd_sc_hd__decap_4
XANTENNA__4087__D _4087_/D vssd1 vccd1 vccd1 vssd1 sky130_ef_sc_hd__fakediode_2
X_3207_ _3692_/A vssd1 vssd1 vccd1 vccd1 _3227_/B sky130_fd_sc_hd__dlymetal6s2s_1
X_3138_ _3257_/B _4212_/Q _3144_/S vssd1 vssd1 vccd1 vccd1 _3646_/C sky130_fd_sc_hd__mux2_1
XFILLER_27_225 vssd1 vssd1 vccd1 vccd1 sky130_fd_sc_hd__decap_12
XFILLER_28_737 vssd1 vssd1 vccd1 vccd1 sky130_fd_sc_hd__decap_12
XFILLER_41_1057 vssd1 vssd1 vccd1 vccd1 sky130_fd_sc_hd__fill_2
X_3069_ _3208_/C _4193_/Q _3076_/S vssd1 vssd1 vccd1 vccd1 _3600_/A sky130_fd_sc_hd__mux2_2
XFILLER_63_39 vssd1 vssd1 vccd1 vccd1 sky130_fd_sc_hd__decap_4
XTAP_1129 vssd1 vccd1 sky130_fd_sc_hd__tapvpwrvgnd_1
XTAP_1118 vssd1 vccd1 sky130_fd_sc_hd__tapvpwrvgnd_1
XTAP_1107 vssd1 vccd1 sky130_fd_sc_hd__tapvpwrvgnd_1
XFILLER_43_729 vssd1 vssd1 vccd1 vccd1 sky130_fd_sc_hd__decap_12
XFILLER_36_781 vssd1 vssd1 vccd1 vccd1 sky130_fd_sc_hd__decap_12