* NGSPICE file created from mkQF100SPI.ext - technology: sky130A

* Black-box entry subcircuit for sky130_fd_sc_hd__tapvpwrvgnd_1 abstract view
.subckt sky130_fd_sc_hd__tapvpwrvgnd_1 VGND VPWR
.ends

* Black-box entry subcircuit for sky130_fd_sc_hd__decap_4 abstract view
.subckt sky130_fd_sc_hd__decap_4 VGND VNB VPB VPWR
.ends

* Black-box entry subcircuit for sky130_fd_sc_hd__fill_1 abstract view
.subckt sky130_fd_sc_hd__fill_1 VGND VNB VPB VPWR
.ends

* Black-box entry subcircuit for sky130_fd_sc_hd__decap_8 abstract view
.subckt sky130_fd_sc_hd__decap_8 VGND VNB VPB VPWR
.ends

* Black-box entry subcircuit for sky130_fd_sc_hd__and2_1 abstract view
.subckt sky130_fd_sc_hd__and2_1 A B VGND VNB VPB VPWR X
.ends

* Black-box entry subcircuit for sky130_fd_sc_hd__and3_1 abstract view
.subckt sky130_fd_sc_hd__and3_1 A B C VGND VNB VPB VPWR X
.ends

* Black-box entry subcircuit for sky130_fd_sc_hd__clkbuf_1 abstract view
.subckt sky130_fd_sc_hd__clkbuf_1 A VGND VNB VPB VPWR X
.ends

* Black-box entry subcircuit for sky130_fd_sc_hd__fill_2 abstract view
.subckt sky130_fd_sc_hd__fill_2 VGND VNB VPB VPWR
.ends

* Black-box entry subcircuit for sky130_fd_sc_hd__nor2_1 abstract view
.subckt sky130_fd_sc_hd__nor2_1 A B VGND VNB VPB VPWR Y
.ends

* Black-box entry subcircuit for sky130_fd_sc_hd__or2_1 abstract view
.subckt sky130_fd_sc_hd__or2_1 A B VGND VNB VPB VPWR X
.ends

* Black-box entry subcircuit for sky130_fd_sc_hd__clkbuf_2 abstract view
.subckt sky130_fd_sc_hd__clkbuf_2 A VGND VNB VPB VPWR X
.ends

* Black-box entry subcircuit for sky130_fd_sc_hd__o21ai_1 abstract view
.subckt sky130_fd_sc_hd__o21ai_1 A1 A2 B1 VGND VNB VPB VPWR Y
.ends

* Black-box entry subcircuit for sky130_fd_sc_hd__o22a_1 abstract view
.subckt sky130_fd_sc_hd__o22a_1 A1 A2 B1 B2 VGND VNB VPB VPWR X
.ends

* Black-box entry subcircuit for sky130_fd_sc_hd__a22oi_2 abstract view
.subckt sky130_fd_sc_hd__a22oi_2 A1 A2 B1 B2 VGND VNB VPB VPWR Y
.ends

* Black-box entry subcircuit for sky130_fd_sc_hd__a211o_1 abstract view
.subckt sky130_fd_sc_hd__a211o_1 A1 A2 B1 C1 VGND VNB VPB VPWR X
.ends

* Black-box entry subcircuit for sky130_fd_sc_hd__a22o_1 abstract view
.subckt sky130_fd_sc_hd__a22o_1 A1 A2 B1 B2 VGND VNB VPB VPWR X
.ends

* Black-box entry subcircuit for sky130_fd_sc_hd__decap_6 abstract view
.subckt sky130_fd_sc_hd__decap_6 VGND VNB VPB VPWR
.ends

* Black-box entry subcircuit for sky130_fd_sc_hd__diode_2 abstract view
.subckt sky130_fd_sc_hd__diode_2 DIODE VGND VNB VPB VPWR
.ends

* Black-box entry subcircuit for sky130_fd_sc_hd__dfxtp_1 abstract view
.subckt sky130_fd_sc_hd__dfxtp_1 CLK D VGND VNB VPB VPWR Q
.ends

* Black-box entry subcircuit for sky130_fd_sc_hd__buf_2 abstract view
.subckt sky130_fd_sc_hd__buf_2 A VGND VNB VPB VPWR X
.ends

* Black-box entry subcircuit for sky130_fd_sc_hd__a21o_1 abstract view
.subckt sky130_fd_sc_hd__a21o_1 A1 A2 B1 VGND VNB VPB VPWR X
.ends

* Black-box entry subcircuit for sky130_fd_sc_hd__and2b_1 abstract view
.subckt sky130_fd_sc_hd__and2b_1 A_N B VGND VNB VPB VPWR X
.ends

* Black-box entry subcircuit for sky130_fd_sc_hd__or4_1 abstract view
.subckt sky130_fd_sc_hd__or4_1 A B C D VGND VNB VPB VPWR X
.ends

* Black-box entry subcircuit for sky130_fd_sc_hd__a31o_1 abstract view
.subckt sky130_fd_sc_hd__a31o_1 A1 A2 A3 B1 VGND VNB VPB VPWR X
.ends

* Black-box entry subcircuit for sky130_fd_sc_hd__nand2_1 abstract view
.subckt sky130_fd_sc_hd__nand2_1 A B VGND VNB VPB VPWR Y
.ends

* Black-box entry subcircuit for sky130_fd_sc_hd__o211a_1 abstract view
.subckt sky130_fd_sc_hd__o211a_1 A1 A2 B1 C1 VGND VNB VPB VPWR X
.ends

* Black-box entry subcircuit for sky130_fd_sc_hd__or3_2 abstract view
.subckt sky130_fd_sc_hd__or3_2 A B C VGND VNB VPB VPWR X
.ends

* Black-box entry subcircuit for sky130_fd_sc_hd__dlymetal6s2s_1 abstract view
.subckt sky130_fd_sc_hd__dlymetal6s2s_1 A VGND VNB VPB VPWR X
.ends

* Black-box entry subcircuit for sky130_fd_sc_hd__mux2_1 abstract view
.subckt sky130_fd_sc_hd__mux2_1 A0 A1 S VGND VNB VPB VPWR X
.ends

* Black-box entry subcircuit for sky130_fd_sc_hd__decap_3 abstract view
.subckt sky130_fd_sc_hd__decap_3 VGND VNB VPB VPWR
.ends

* Black-box entry subcircuit for sky130_fd_sc_hd__o21a_1 abstract view
.subckt sky130_fd_sc_hd__o21a_1 A1 A2 B1 VGND VNB VPB VPWR X
.ends

* Black-box entry subcircuit for sky130_fd_sc_hd__nor3_2 abstract view
.subckt sky130_fd_sc_hd__nor3_2 A B C VGND VNB VPB VPWR Y
.ends

* Black-box entry subcircuit for sky130_fd_sc_hd__decap_12 abstract view
.subckt sky130_fd_sc_hd__decap_12 VGND VNB VPB VPWR
.ends

* Black-box entry subcircuit for sky130_fd_sc_hd__or3b_2 abstract view
.subckt sky130_fd_sc_hd__or3b_2 A B C_N VGND VNB VPB VPWR X
.ends

* Black-box entry subcircuit for sky130_fd_sc_hd__inv_2 abstract view
.subckt sky130_fd_sc_hd__inv_2 A VGND VNB VPB VPWR Y
.ends

* Black-box entry subcircuit for sky130_fd_sc_hd__a31oi_1 abstract view
.subckt sky130_fd_sc_hd__a31oi_1 A1 A2 A3 B1 VGND VNB VPB VPWR Y
.ends

* Black-box entry subcircuit for sky130_fd_sc_hd__a22oi_4 abstract view
.subckt sky130_fd_sc_hd__a22oi_4 A1 A2 B1 B2 VGND VNB VPB VPWR Y
.ends

* Black-box entry subcircuit for sky130_fd_sc_hd__o221a_1 abstract view
.subckt sky130_fd_sc_hd__o221a_1 A1 A2 B1 B2 C1 VGND VNB VPB VPWR X
.ends

* Black-box entry subcircuit for sky130_fd_sc_hd__xnor2_1 abstract view
.subckt sky130_fd_sc_hd__xnor2_1 A B VGND VNB VPB VPWR Y
.ends

* Black-box entry subcircuit for sky130_fd_sc_hd__o21ai_2 abstract view
.subckt sky130_fd_sc_hd__o21ai_2 A1 A2 B1 VGND VNB VPB VPWR Y
.ends

* Black-box entry subcircuit for sky130_fd_sc_hd__a21oi_1 abstract view
.subckt sky130_fd_sc_hd__a21oi_1 A1 A2 B1 VGND VNB VPB VPWR Y
.ends

* Black-box entry subcircuit for sky130_fd_sc_hd__or3_1 abstract view
.subckt sky130_fd_sc_hd__or3_1 A B C VGND VNB VPB VPWR X
.ends

* Black-box entry subcircuit for sky130_fd_sc_hd__a221o_1 abstract view
.subckt sky130_fd_sc_hd__a221o_1 A1 A2 B1 B2 C1 VGND VNB VPB VPWR X
.ends

* Black-box entry subcircuit for sky130_fd_sc_hd__a41o_1 abstract view
.subckt sky130_fd_sc_hd__a41o_1 A1 A2 A3 A4 B1 VGND VNB VPB VPWR X
.ends

* Black-box entry subcircuit for sky130_fd_sc_hd__nor2_2 abstract view
.subckt sky130_fd_sc_hd__nor2_2 A B VGND VNB VPB VPWR Y
.ends

* Black-box entry subcircuit for sky130_fd_sc_hd__dfxtp_2 abstract view
.subckt sky130_fd_sc_hd__dfxtp_2 CLK D VGND VNB VPB VPWR Q
.ends

* Black-box entry subcircuit for sky130_fd_sc_hd__o31a_1 abstract view
.subckt sky130_fd_sc_hd__o31a_1 A1 A2 A3 B1 VGND VNB VPB VPWR X
.ends

* Black-box entry subcircuit for sky130_fd_sc_hd__nand3_1 abstract view
.subckt sky130_fd_sc_hd__nand3_1 A B C VGND VNB VPB VPWR Y
.ends

* Black-box entry subcircuit for sky130_fd_sc_hd__nor4_1 abstract view
.subckt sky130_fd_sc_hd__nor4_1 A B C D VGND VNB VPB VPWR Y
.ends

* Black-box entry subcircuit for sky130_fd_sc_hd__a2111o_1 abstract view
.subckt sky130_fd_sc_hd__a2111o_1 A1 A2 B1 C1 D1 VGND VNB VPB VPWR X
.ends

* Black-box entry subcircuit for sky130_fd_sc_hd__or4b_2 abstract view
.subckt sky130_fd_sc_hd__or4b_2 A B C D_N VGND VNB VPB VPWR X
.ends

* Black-box entry subcircuit for sky130_fd_sc_hd__nand3b_1 abstract view
.subckt sky130_fd_sc_hd__nand3b_1 A_N B C VGND VNB VPB VPWR Y
.ends

* Black-box entry subcircuit for sky130_fd_sc_hd__and4_1 abstract view
.subckt sky130_fd_sc_hd__and4_1 A B C D VGND VNB VPB VPWR X
.ends

* Black-box entry subcircuit for sky130_fd_sc_hd__clkinv_2 abstract view
.subckt sky130_fd_sc_hd__clkinv_2 A VGND VNB VPB VPWR Y
.ends

* Black-box entry subcircuit for sky130_fd_sc_hd__or4_4 abstract view
.subckt sky130_fd_sc_hd__or4_4 A B C D VGND VNB VPB VPWR X
.ends

* Black-box entry subcircuit for sky130_fd_sc_hd__clkbuf_4 abstract view
.subckt sky130_fd_sc_hd__clkbuf_4 A VGND VNB VPB VPWR X
.ends

* Black-box entry subcircuit for sky130_fd_sc_hd__or2b_1 abstract view
.subckt sky130_fd_sc_hd__or2b_1 A B_N VGND VNB VPB VPWR X
.ends

* Black-box entry subcircuit for sky130_fd_sc_hd__nand3b_2 abstract view
.subckt sky130_fd_sc_hd__nand3b_2 A_N B C VGND VNB VPB VPWR Y
.ends

* Black-box entry subcircuit for sky130_fd_sc_hd__a311oi_1 abstract view
.subckt sky130_fd_sc_hd__a311oi_1 A1 A2 A3 B1 C1 VGND VNB VPB VPWR Y
.ends

* Black-box entry subcircuit for sky130_fd_sc_hd__or3b_1 abstract view
.subckt sky130_fd_sc_hd__or3b_1 A B C_N VGND VNB VPB VPWR X
.ends

* Black-box entry subcircuit for sky130_fd_sc_hd__a21oi_2 abstract view
.subckt sky130_fd_sc_hd__a21oi_2 A1 A2 B1 VGND VNB VPB VPWR Y
.ends

* Black-box entry subcircuit for sky130_fd_sc_hd__o21ai_4 abstract view
.subckt sky130_fd_sc_hd__o21ai_4 A1 A2 B1 VGND VNB VPB VPWR Y
.ends

* Black-box entry subcircuit for sky130_fd_sc_hd__nand2_2 abstract view
.subckt sky130_fd_sc_hd__nand2_2 A B VGND VNB VPB VPWR Y
.ends

* Black-box entry subcircuit for sky130_fd_sc_hd__a2bb2o_1 abstract view
.subckt sky130_fd_sc_hd__a2bb2o_1 A1_N A2_N B1 B2 VGND VNB VPB VPWR X
.ends

* Black-box entry subcircuit for sky130_fd_sc_hd__clkbuf_16 abstract view
.subckt sky130_fd_sc_hd__clkbuf_16 A VGND VNB VPB VPWR X
.ends

* Black-box entry subcircuit for sky130_fd_sc_hd__conb_1 abstract view
.subckt sky130_fd_sc_hd__conb_1 VGND VNB VPB VPWR HI LO
.ends

* Black-box entry subcircuit for sky130_fd_sc_hd__xor2_1 abstract view
.subckt sky130_fd_sc_hd__xor2_1 A B VGND VNB VPB VPWR X
.ends

* Black-box entry subcircuit for sky130_fd_sc_hd__nor2b_2 abstract view
.subckt sky130_fd_sc_hd__nor2b_2 A B_N VGND VNB VPB VPWR Y
.ends

* Black-box entry subcircuit for sky130_fd_sc_hd__xor2_2 abstract view
.subckt sky130_fd_sc_hd__xor2_2 A B VGND VNB VPB VPWR X
.ends

* Black-box entry subcircuit for sky130_fd_sc_hd__or4_2 abstract view
.subckt sky130_fd_sc_hd__or4_2 A B C D VGND VNB VPB VPWR X
.ends

* Black-box entry subcircuit for sky130_fd_sc_hd__a21o_2 abstract view
.subckt sky130_fd_sc_hd__a21o_2 A1 A2 B1 VGND VNB VPB VPWR X
.ends

* Black-box entry subcircuit for sky130_fd_sc_hd__o21ba_1 abstract view
.subckt sky130_fd_sc_hd__o21ba_1 A1 A2 B1_N VGND VNB VPB VPWR X
.ends

* Black-box entry subcircuit for sky130_fd_sc_hd__nand4_1 abstract view
.subckt sky130_fd_sc_hd__nand4_1 A B C D VGND VNB VPB VPWR Y
.ends

* Black-box entry subcircuit for sky130_fd_sc_hd__o221ai_1 abstract view
.subckt sky130_fd_sc_hd__o221ai_1 A1 A2 B1 B2 C1 VGND VNB VPB VPWR Y
.ends

* Black-box entry subcircuit for sky130_fd_sc_hd__a32o_1 abstract view
.subckt sky130_fd_sc_hd__a32o_1 A1 A2 A3 B1 B2 VGND VNB VPB VPWR X
.ends

* Black-box entry subcircuit for sky130_fd_sc_hd__a311o_1 abstract view
.subckt sky130_fd_sc_hd__a311o_1 A1 A2 A3 B1 C1 VGND VNB VPB VPWR X
.ends

* Black-box entry subcircuit for sky130_fd_sc_hd__a221oi_1 abstract view
.subckt sky130_fd_sc_hd__a221oi_1 A1 A2 B1 B2 C1 VGND VNB VPB VPWR Y
.ends

* Black-box entry subcircuit for sky130_fd_sc_hd__o311a_1 abstract view
.subckt sky130_fd_sc_hd__o311a_1 A1 A2 A3 B1 C1 VGND VNB VPB VPWR X
.ends

.subckt mkQF100SPI CLK RST_N VGND VPWR slave_ack_o slave_adr_i[0] slave_adr_i[10]
+ slave_adr_i[11] slave_adr_i[12] slave_adr_i[13] slave_adr_i[14] slave_adr_i[15]
+ slave_adr_i[16] slave_adr_i[17] slave_adr_i[18] slave_adr_i[19] slave_adr_i[1] slave_adr_i[20]
+ slave_adr_i[21] slave_adr_i[22] slave_adr_i[23] slave_adr_i[24] slave_adr_i[25]
+ slave_adr_i[26] slave_adr_i[27] slave_adr_i[28] slave_adr_i[29] slave_adr_i[2] slave_adr_i[30]
+ slave_adr_i[31] slave_adr_i[3] slave_adr_i[4] slave_adr_i[5] slave_adr_i[6] slave_adr_i[7]
+ slave_adr_i[8] slave_adr_i[9] slave_cyc_i slave_dat_i[0] slave_dat_i[10] slave_dat_i[11]
+ slave_dat_i[12] slave_dat_i[13] slave_dat_i[14] slave_dat_i[15] slave_dat_i[16]
+ slave_dat_i[17] slave_dat_i[18] slave_dat_i[19] slave_dat_i[1] slave_dat_i[20] slave_dat_i[21]
+ slave_dat_i[22] slave_dat_i[23] slave_dat_i[24] slave_dat_i[25] slave_dat_i[26]
+ slave_dat_i[27] slave_dat_i[28] slave_dat_i[29] slave_dat_i[2] slave_dat_i[30] slave_dat_i[31]
+ slave_dat_i[3] slave_dat_i[4] slave_dat_i[5] slave_dat_i[6] slave_dat_i[7] slave_dat_i[8]
+ slave_dat_i[9] slave_dat_o[0] slave_dat_o[10] slave_dat_o[11] slave_dat_o[12] slave_dat_o[13]
+ slave_dat_o[14] slave_dat_o[15] slave_dat_o[16] slave_dat_o[17] slave_dat_o[18]
+ slave_dat_o[19] slave_dat_o[1] slave_dat_o[20] slave_dat_o[21] slave_dat_o[22] slave_dat_o[23]
+ slave_dat_o[24] slave_dat_o[25] slave_dat_o[26] slave_dat_o[27] slave_dat_o[28]
+ slave_dat_o[29] slave_dat_o[2] slave_dat_o[30] slave_dat_o[31] slave_dat_o[3] slave_dat_o[4]
+ slave_dat_o[5] slave_dat_o[6] slave_dat_o[7] slave_dat_o[8] slave_dat_o[9] slave_err_o
+ slave_rty_o slave_sel_i[0] slave_sel_i[1] slave_sel_i[2] slave_sel_i[3] slave_stb_i
+ slave_we_i spiMaster_miso spiMaster_mosi spiMaster_mosi_oe spiMaster_sclk
XTAP_177 VGND VPWR sky130_fd_sc_hd__tapvpwrvgnd_1
XTAP_188 VGND VPWR sky130_fd_sc_hd__tapvpwrvgnd_1
XTAP_199 VGND VPWR sky130_fd_sc_hd__tapvpwrvgnd_1
XFILLER_45_269 VGND VGND VPWR VPWR sky130_fd_sc_hd__decap_4
XFILLER_26_63 VGND VGND VPWR VPWR sky130_fd_sc_hd__fill_1
XFILLER_36_214 VGND VGND VPWR VPWR sky130_fd_sc_hd__decap_8
X_1270_ _1521_/A _1270_/B VGND VGND VPWR VPWR _1271_/A sky130_fd_sc_hd__and2_1
X_1606_ _1606_/A _1606_/B _1606_/C VGND VGND VPWR VPWR _1607_/A sky130_fd_sc_hd__and3_1
X_0985_ _0985_/A VGND VGND VPWR VPWR _0985_/X sky130_fd_sc_hd__clkbuf_1
XFILLER_8_192 VGND VGND VPWR VPWR sky130_fd_sc_hd__decap_4
XFILLER_47_18 VGND VGND VPWR VPWR sky130_fd_sc_hd__fill_2
X_1537_ _1551_/A _1585_/B VGND VGND VPWR VPWR _1538_/S sky130_fd_sc_hd__nor2_1
X_1468_ _1626_/Q _1608_/B VGND VGND VPWR VPWR _1468_/X sky130_fd_sc_hd__or2_1
X_1399_ _1429_/B VGND VGND VPWR VPWR _1459_/B sky130_fd_sc_hd__clkbuf_2
XFILLER_42_217 VGND VGND VPWR VPWR sky130_fd_sc_hd__fill_1
XFILLER_27_247 VGND VGND VPWR VPWR sky130_fd_sc_hd__decap_4
XFILLER_6_118 VGND VGND VPWR VPWR sky130_fd_sc_hd__decap_4
XFILLER_10_136 VGND VGND VPWR VPWR sky130_fd_sc_hd__decap_4
XFILLER_12_54 VGND VGND VPWR VPWR sky130_fd_sc_hd__decap_4
XFILLER_18_203 VGND VGND VPWR VPWR sky130_fd_sc_hd__decap_4
XFILLER_18_247 VGND VGND VPWR VPWR sky130_fd_sc_hd__decap_4
X_1322_ _1321_/A _1321_/B _1321_/C VGND VGND VPWR VPWR _1323_/C sky130_fd_sc_hd__o21ai_1
X_1253_ input20/X _1231_/X _1102_/A _1667_/Q VGND VGND VPWR VPWR _1254_/B sky130_fd_sc_hd__o22a_1
X_1184_ _1184_/A VGND VGND VPWR VPWR _1647_/D sky130_fd_sc_hd__clkbuf_1
X_0968_ _1709_/Q _1069_/A _0967_/X _1693_/Q VGND VGND VPWR VPWR _1418_/A sky130_fd_sc_hd__a22oi_2
X_0899_ _1568_/B _0891_/X _0896_/X _1551_/A VGND VGND VPWR VPWR _0900_/C sky130_fd_sc_hd__a211o_1
XFILLER_23_250 VGND VGND VPWR VPWR sky130_fd_sc_hd__fill_1
XFILLER_23_261 VGND VGND VPWR VPWR sky130_fd_sc_hd__decap_4
XFILLER_0_13 VGND VGND VPWR VPWR sky130_fd_sc_hd__decap_4
XFILLER_0_46 VGND VGND VPWR VPWR sky130_fd_sc_hd__decap_8
XFILLER_0_57 VGND VGND VPWR VPWR sky130_fd_sc_hd__decap_4
XFILLER_0_68 VGND VGND VPWR VPWR sky130_fd_sc_hd__decap_4
X_0822_ _1682_/Q _1337_/A _1331_/A _1681_/Q VGND VGND VPWR VPWR _0841_/B sky130_fd_sc_hd__a22o_1
XFILLER_9_33 VGND VGND VPWR VPWR sky130_fd_sc_hd__fill_1
XFILLER_9_44 VGND VGND VPWR VPWR sky130_fd_sc_hd__fill_1
X_1305_ _1305_/A _1305_/B VGND VGND VPWR VPWR _1677_/D sky130_fd_sc_hd__nor2_1
X_1236_ _1251_/A _1236_/B VGND VGND VPWR VPWR _1237_/A sky130_fd_sc_hd__and2_1
X_1098_ _1098_/A VGND VGND VPWR VPWR _1411_/A sky130_fd_sc_hd__clkbuf_2
X_1167_ input24/X _1159_/X _1139_/X _1643_/Q VGND VGND VPWR VPWR _1168_/B sky130_fd_sc_hd__o22a_1
XFILLER_20_253 VGND VGND VPWR VPWR sky130_fd_sc_hd__decap_4
XFILLER_20_286 VGND VGND VPWR VPWR sky130_fd_sc_hd__decap_4
XFILLER_18_53 VGND VGND VPWR VPWR sky130_fd_sc_hd__decap_4
XFILLER_18_64 VGND VGND VPWR VPWR sky130_fd_sc_hd__decap_4
XFILLER_11_242 VGND VGND VPWR VPWR sky130_fd_sc_hd__decap_4
XFILLER_7_279 VGND VGND VPWR VPWR sky130_fd_sc_hd__fill_1
X_1021_ _1726_/Q _1029_/B _1029_/C VGND VGND VPWR VPWR _1022_/A sky130_fd_sc_hd__and3_1
X_0805_ _1289_/A VGND VGND VPWR VPWR _1509_/A sky130_fd_sc_hd__clkbuf_2
XFILLER_39_19 VGND VGND VPWR VPWR sky130_fd_sc_hd__decap_6
X_1219_ _1233_/A _1219_/B VGND VGND VPWR VPWR _1220_/A sky130_fd_sc_hd__or2_1
XFILLER_20_21 VGND VGND VPWR VPWR sky130_fd_sc_hd__decap_6
XFILLER_20_76 VGND VGND VPWR VPWR sky130_fd_sc_hd__fill_1
XFILLER_45_84 VGND VGND VPWR VPWR sky130_fd_sc_hd__decap_4
XFILLER_45_73 VGND VGND VPWR VPWR sky130_fd_sc_hd__fill_1
XFILLER_43_186 VGND VGND VPWR VPWR sky130_fd_sc_hd__decap_6
XFILLER_43_142 VGND VGND VPWR VPWR sky130_fd_sc_hd__decap_8
XTAP_348 VGND VPWR sky130_fd_sc_hd__tapvpwrvgnd_1
XTAP_337 VGND VPWR sky130_fd_sc_hd__tapvpwrvgnd_1
XANTENNA_5 slave_adr_i[16] VGND VGND VPWR VPWR sky130_fd_sc_hd__diode_2
XTAP_326 VGND VPWR sky130_fd_sc_hd__tapvpwrvgnd_1
XTAP_315 VGND VPWR sky130_fd_sc_hd__tapvpwrvgnd_1
X_1570_ _1759_/Q _1542_/X _1569_/X _1546_/X VGND VGND VPWR VPWR _1571_/B sky130_fd_sc_hd__a22o_1
XTAP_304 VGND VPWR sky130_fd_sc_hd__tapvpwrvgnd_1
XFILLER_3_271 VGND VGND VPWR VPWR sky130_fd_sc_hd__fill_1
XFILLER_6_78 VGND VGND VPWR VPWR sky130_fd_sc_hd__decap_6
XFILLER_13_3 VGND VGND VPWR VPWR sky130_fd_sc_hd__decap_4
XFILLER_19_183 VGND VGND VPWR VPWR sky130_fd_sc_hd__decap_4
XFILLER_34_197 VGND VGND VPWR VPWR sky130_fd_sc_hd__decap_4
X_1004_ _1004_/A VGND VGND VPWR VPWR _1004_/X sky130_fd_sc_hd__clkbuf_1
XFILLER_1_208 VGND VGND VPWR VPWR sky130_fd_sc_hd__decap_4
X_1699_ _1730_/CLK _1699_/D VGND VGND VPWR VPWR _1699_/Q sky130_fd_sc_hd__dfxtp_1
XFILLER_25_164 VGND VGND VPWR VPWR sky130_fd_sc_hd__decap_4
XFILLER_25_131 VGND VGND VPWR VPWR sky130_fd_sc_hd__fill_1
XFILLER_40_178 VGND VGND VPWR VPWR sky130_fd_sc_hd__decap_4
XFILLER_40_134 VGND VGND VPWR VPWR sky130_fd_sc_hd__decap_6
Xoutput64 _1004_/X VGND VGND VPWR VPWR slave_dat_o[18] sky130_fd_sc_hd__buf_2
XFILLER_0_230 VGND VGND VPWR VPWR sky130_fd_sc_hd__decap_4
Xoutput75 _1028_/X VGND VGND VPWR VPWR slave_dat_o[28] sky130_fd_sc_hd__buf_2
XFILLER_48_201 VGND VGND VPWR VPWR sky130_fd_sc_hd__fill_1
Xoutput86 _0974_/X VGND VGND VPWR VPWR slave_dat_o[9] sky130_fd_sc_hd__buf_2
XFILLER_31_134 VGND VGND VPWR VPWR sky130_fd_sc_hd__fill_1
XFILLER_16_164 VGND VGND VPWR VPWR sky130_fd_sc_hd__fill_1
XFILLER_16_197 VGND VGND VPWR VPWR sky130_fd_sc_hd__fill_2
X_1622_ _1767_/CLK _1622_/D VGND VGND VPWR VPWR _1622_/Q sky130_fd_sc_hd__dfxtp_1
X_1553_ _1756_/Q _1542_/X _1552_/X _1546_/X VGND VGND VPWR VPWR _1554_/B sky130_fd_sc_hd__a22o_1
X_1484_ _1743_/Q _1480_/Y _1744_/Q VGND VGND VPWR VPWR _1484_/X sky130_fd_sc_hd__a21o_1
XTAP_123 VGND VPWR sky130_fd_sc_hd__tapvpwrvgnd_1
XTAP_112 VGND VPWR sky130_fd_sc_hd__tapvpwrvgnd_1
XTAP_101 VGND VPWR sky130_fd_sc_hd__tapvpwrvgnd_1
XTAP_134 VGND VPWR sky130_fd_sc_hd__tapvpwrvgnd_1
XTAP_145 VGND VPWR sky130_fd_sc_hd__tapvpwrvgnd_1
XTAP_156 VGND VPWR sky130_fd_sc_hd__tapvpwrvgnd_1
XTAP_167 VGND VPWR sky130_fd_sc_hd__tapvpwrvgnd_1
XTAP_178 VGND VPWR sky130_fd_sc_hd__tapvpwrvgnd_1
XTAP_189 VGND VPWR sky130_fd_sc_hd__tapvpwrvgnd_1
XFILLER_39_256 VGND VGND VPWR VPWR sky130_fd_sc_hd__decap_4
XFILLER_39_245 VGND VGND VPWR VPWR sky130_fd_sc_hd__fill_1
Xclkbuf_4_5_0_CLK clkbuf_4_5_0_CLK/A VGND VGND VPWR VPWR _1740_/CLK sky130_fd_sc_hd__clkbuf_2
XFILLER_13_167 VGND VGND VPWR VPWR sky130_fd_sc_hd__fill_1
XFILLER_42_96 VGND VGND VPWR VPWR sky130_fd_sc_hd__decap_4
XFILLER_42_85 VGND VGND VPWR VPWR sky130_fd_sc_hd__decap_4
XFILLER_9_149 VGND VGND VPWR VPWR sky130_fd_sc_hd__decap_4
XFILLER_13_189 VGND VGND VPWR VPWR sky130_fd_sc_hd__fill_1
XFILLER_3_57 VGND VGND VPWR VPWR sky130_fd_sc_hd__fill_1
XFILLER_36_248 VGND VGND VPWR VPWR sky130_fd_sc_hd__decap_4
X_0984_ _1424_/A _1005_/C VGND VGND VPWR VPWR _0985_/A sky130_fd_sc_hd__and2b_1
X_1536_ _1536_/A _1550_/A _1600_/B _1536_/D VGND VGND VPWR VPWR _1585_/B sky130_fd_sc_hd__or4_1
X_1605_ _1735_/Q _1442_/A _1509_/B _1766_/Q VGND VGND VPWR VPWR _1606_/C sky130_fd_sc_hd__a31o_1
X_1398_ input1/X _1427_/B VGND VGND VPWR VPWR _1429_/B sky130_fd_sc_hd__nand2_1
X_1467_ _0879_/B _1080_/X _1466_/X _1279_/X VGND VGND VPWR VPWR _1737_/D sky130_fd_sc_hd__o211a_1
XFILLER_10_148 VGND VGND VPWR VPWR sky130_fd_sc_hd__decap_4
XFILLER_10_159 VGND VGND VPWR VPWR sky130_fd_sc_hd__fill_1
XFILLER_12_99 VGND VGND VPWR VPWR sky130_fd_sc_hd__fill_1
XFILLER_18_237 VGND VGND VPWR VPWR sky130_fd_sc_hd__decap_4
XFILLER_41_262 VGND VGND VPWR VPWR sky130_fd_sc_hd__decap_4
XFILLER_41_251 VGND VGND VPWR VPWR sky130_fd_sc_hd__decap_4
XFILLER_41_240 VGND VGND VPWR VPWR sky130_fd_sc_hd__fill_1
XFILLER_45_6 VGND VGND VPWR VPWR sky130_fd_sc_hd__decap_4
X_1321_ _1321_/A _1321_/B _1321_/C VGND VGND VPWR VPWR _1333_/A sky130_fd_sc_hd__or3_2
X_1252_ _1252_/A VGND VGND VPWR VPWR _1666_/D sky130_fd_sc_hd__clkbuf_1
XFILLER_17_281 VGND VGND VPWR VPWR sky130_fd_sc_hd__fill_1
X_1183_ _1197_/A _1183_/B VGND VGND VPWR VPWR _1184_/A sky130_fd_sc_hd__or2_1
X_0967_ _0967_/A VGND VGND VPWR VPWR _0967_/X sky130_fd_sc_hd__buf_2
X_0898_ _1557_/D VGND VGND VPWR VPWR _1551_/A sky130_fd_sc_hd__dlymetal6s2s_1
X_1519_ _1508_/X _1751_/Q _1519_/S VGND VGND VPWR VPWR _1519_/X sky130_fd_sc_hd__mux2_1
XFILLER_23_284 VGND VGND VPWR VPWR sky130_fd_sc_hd__decap_6
XFILLER_23_98 VGND VGND VPWR VPWR sky130_fd_sc_hd__decap_6
XFILLER_2_177 VGND VGND VPWR VPWR sky130_fd_sc_hd__decap_8
X_0821_ _1681_/Q _1331_/A _1325_/A _1680_/Q VGND VGND VPWR VPWR _0841_/A sky130_fd_sc_hd__o22a_1
XFILLER_43_3 VGND VGND VPWR VPWR sky130_fd_sc_hd__decap_4
X_1304_ _1298_/X _1300_/X _1302_/Y _1342_/B VGND VGND VPWR VPWR _1305_/B sky130_fd_sc_hd__o22a_1
X_1235_ input15/X _1206_/X _1207_/X _1662_/Q VGND VGND VPWR VPWR _1236_/B sky130_fd_sc_hd__a22o_1
X_1166_ _1411_/A VGND VGND VPWR VPWR _1197_/A sky130_fd_sc_hd__clkbuf_1
X_1097_ _1097_/A VGND VGND VPWR VPWR _1624_/D sky130_fd_sc_hd__clkbuf_1
XFILLER_34_75 VGND VGND VPWR VPWR sky130_fd_sc_hd__decap_8
XFILLER_7_225 VGND VGND VPWR VPWR sky130_fd_sc_hd__decap_3
XFILLER_11_276 VGND VGND VPWR VPWR sky130_fd_sc_hd__decap_4
XFILLER_46_151 VGND VGND VPWR VPWR sky130_fd_sc_hd__fill_2
X_1020_ _1020_/A VGND VGND VPWR VPWR _1029_/C sky130_fd_sc_hd__clkbuf_1
XFILLER_15_7 VGND VGND VPWR VPWR sky130_fd_sc_hd__fill_1
XFILLER_46_173 VGND VGND VPWR VPWR sky130_fd_sc_hd__fill_2
X_0804_ _1749_/Q VGND VGND VPWR VPWR _1289_/A sky130_fd_sc_hd__dlymetal6s2s_1
XFILLER_37_184 VGND VGND VPWR VPWR sky130_fd_sc_hd__fill_1
X_1218_ input9/X _1195_/X _1211_/X _1657_/Q VGND VGND VPWR VPWR _1219_/B sky130_fd_sc_hd__o22a_1
X_1149_ _1256_/A VGND VGND VPWR VPWR _1180_/A sky130_fd_sc_hd__clkbuf_2
XFILLER_29_42 VGND VGND VPWR VPWR sky130_fd_sc_hd__decap_4
XFILLER_43_176 VGND VGND VPWR VPWR sky130_fd_sc_hd__decap_3
XANTENNA_6 slave_adr_i[23] VGND VGND VPWR VPWR sky130_fd_sc_hd__diode_2
XFILLER_6_13 VGND VGND VPWR VPWR sky130_fd_sc_hd__decap_4
XFILLER_6_24 VGND VGND VPWR VPWR sky130_fd_sc_hd__decap_4
XTAP_349 VGND VPWR sky130_fd_sc_hd__tapvpwrvgnd_1
XTAP_338 VGND VPWR sky130_fd_sc_hd__tapvpwrvgnd_1
XTAP_327 VGND VPWR sky130_fd_sc_hd__tapvpwrvgnd_1
XTAP_316 VGND VPWR sky130_fd_sc_hd__tapvpwrvgnd_1
XTAP_305 VGND VPWR sky130_fd_sc_hd__tapvpwrvgnd_1
X_1003_ _1719_/Q _1433_/A _1005_/C VGND VGND VPWR VPWR _1004_/A sky130_fd_sc_hd__and3_1
X_1767_ _1767_/CLK _1767_/D VGND VGND VPWR VPWR _1767_/Q sky130_fd_sc_hd__dfxtp_1
X_1698_ _1730_/CLK _1698_/D VGND VGND VPWR VPWR _1698_/Q sky130_fd_sc_hd__dfxtp_1
XFILLER_40_102 VGND VGND VPWR VPWR sky130_fd_sc_hd__decap_4
XFILLER_25_176 VGND VGND VPWR VPWR sky130_fd_sc_hd__decap_6
XFILLER_31_65 VGND VGND VPWR VPWR sky130_fd_sc_hd__decap_6
XFILLER_31_43 VGND VGND VPWR VPWR sky130_fd_sc_hd__decap_4
XFILLER_15_99 VGND VGND VPWR VPWR sky130_fd_sc_hd__decap_4
Xoutput65 _1006_/X VGND VGND VPWR VPWR slave_dat_o[19] sky130_fd_sc_hd__buf_2
XFILLER_0_220 VGND VGND VPWR VPWR sky130_fd_sc_hd__decap_4
Xoutput54 _1411_/B VGND VGND VPWR VPWR slave_ack_o sky130_fd_sc_hd__buf_2
Xoutput76 _1030_/X VGND VGND VPWR VPWR slave_dat_o[29] sky130_fd_sc_hd__buf_2
Xoutput87 _0901_/X VGND VGND VPWR VPWR spiMaster_mosi sky130_fd_sc_hd__buf_2
XFILLER_48_246 VGND VGND VPWR VPWR sky130_fd_sc_hd__decap_6
XFILLER_48_235 VGND VGND VPWR VPWR sky130_fd_sc_hd__decap_4
XFILLER_0_286 VGND VGND VPWR VPWR sky130_fd_sc_hd__decap_4
XFILLER_16_110 VGND VGND VPWR VPWR sky130_fd_sc_hd__fill_1
X_1552_ _1756_/Q _1524_/X _1552_/S VGND VGND VPWR VPWR _1552_/X sky130_fd_sc_hd__mux2_1
X_1621_ _1733_/CLK _1621_/D VGND VGND VPWR VPWR _1621_/Q sky130_fd_sc_hd__dfxtp_1
X_1483_ _1480_/Y _1482_/Y _1083_/X VGND VGND VPWR VPWR _1743_/D sky130_fd_sc_hd__o21a_1
XTAP_124 VGND VPWR sky130_fd_sc_hd__tapvpwrvgnd_1
XTAP_113 VGND VPWR sky130_fd_sc_hd__tapvpwrvgnd_1
XTAP_102 VGND VPWR sky130_fd_sc_hd__tapvpwrvgnd_1
XTAP_135 VGND VPWR sky130_fd_sc_hd__tapvpwrvgnd_1
XTAP_146 VGND VPWR sky130_fd_sc_hd__tapvpwrvgnd_1
XTAP_157 VGND VPWR sky130_fd_sc_hd__tapvpwrvgnd_1
XTAP_168 VGND VPWR sky130_fd_sc_hd__tapvpwrvgnd_1
XTAP_179 VGND VPWR sky130_fd_sc_hd__tapvpwrvgnd_1
XFILLER_22_102 VGND VGND VPWR VPWR sky130_fd_sc_hd__decap_4
XFILLER_30_190 VGND VGND VPWR VPWR sky130_fd_sc_hd__decap_6
XFILLER_22_135 VGND VGND VPWR VPWR sky130_fd_sc_hd__decap_4
XFILLER_22_157 VGND VGND VPWR VPWR sky130_fd_sc_hd__decap_4
XFILLER_45_249 VGND VGND VPWR VPWR sky130_fd_sc_hd__decap_4
XFILLER_26_43 VGND VGND VPWR VPWR sky130_fd_sc_hd__decap_4
XFILLER_9_128 VGND VGND VPWR VPWR sky130_fd_sc_hd__decap_4
XFILLER_13_113 VGND VGND VPWR VPWR sky130_fd_sc_hd__decap_4
XFILLER_42_75 VGND VGND VPWR VPWR sky130_fd_sc_hd__decap_8
X_0983_ _1020_/A VGND VGND VPWR VPWR _1005_/C sky130_fd_sc_hd__clkbuf_1
X_1604_ _1604_/A VGND VGND VPWR VPWR _1765_/D sky130_fd_sc_hd__clkbuf_1
X_1535_ _1535_/A VGND VGND VPWR VPWR _1753_/D sky130_fd_sc_hd__clkbuf_1
X_1397_ _1397_/A VGND VGND VPWR VPWR _1701_/D sky130_fd_sc_hd__clkbuf_1
X_1466_ _1631_/Q _1608_/B VGND VGND VPWR VPWR _1466_/X sky130_fd_sc_hd__or2_1
XFILLER_35_260 VGND VGND VPWR VPWR sky130_fd_sc_hd__fill_1
XFILLER_37_75 VGND VGND VPWR VPWR sky130_fd_sc_hd__decap_6
X_1320_ _1680_/Q _1319_/Y _1486_/A VGND VGND VPWR VPWR _1321_/C sky130_fd_sc_hd__mux2_1
Xclkbuf_4_4_0_CLK clkbuf_4_5_0_CLK/A VGND VGND VPWR VPWR _1742_/CLK sky130_fd_sc_hd__clkbuf_2
XFILLER_5_186 VGND VGND VPWR VPWR sky130_fd_sc_hd__decap_4
X_1251_ _1251_/A _1251_/B VGND VGND VPWR VPWR _1252_/A sky130_fd_sc_hd__and2_1
X_1182_ input30/X _1159_/X _1175_/X _1647_/Q VGND VGND VPWR VPWR _1183_/B sky130_fd_sc_hd__o22a_1
XFILLER_24_208 VGND VGND VPWR VPWR sky130_fd_sc_hd__decap_6
X_0897_ _1301_/A _0897_/B _0897_/C VGND VGND VPWR VPWR _1557_/D sky130_fd_sc_hd__nor3_2
X_0966_ _0966_/A VGND VGND VPWR VPWR _1069_/A sky130_fd_sc_hd__buf_2
X_1518_ _1531_/A _1568_/B _1590_/C _1551_/A VGND VGND VPWR VPWR _1519_/S sky130_fd_sc_hd__or4_1
X_1449_ _1726_/Q _1433_/X _1434_/X VGND VGND VPWR VPWR _1726_/D sky130_fd_sc_hd__a21o_1
XFILLER_15_219 VGND VGND VPWR VPWR sky130_fd_sc_hd__decap_4
XFILLER_23_11 VGND VGND VPWR VPWR sky130_fd_sc_hd__decap_4
XFILLER_23_55 VGND VGND VPWR VPWR sky130_fd_sc_hd__fill_1
XFILLER_23_274 VGND VGND VPWR VPWR sky130_fd_sc_hd__decap_6
XFILLER_3_3 VGND VGND VPWR VPWR sky130_fd_sc_hd__decap_3
XFILLER_48_96 VGND VGND VPWR VPWR sky130_fd_sc_hd__fill_2
XFILLER_48_85 VGND VGND VPWR VPWR sky130_fd_sc_hd__decap_4
XFILLER_48_41 VGND VGND VPWR VPWR sky130_fd_sc_hd__decap_12
XFILLER_9_13 VGND VGND VPWR VPWR sky130_fd_sc_hd__decap_6
X_0820_ _0946_/A _0828_/A _0826_/A VGND VGND VPWR VPWR _1325_/A sky130_fd_sc_hd__or3b_2
X_1303_ _1338_/S VGND VGND VPWR VPWR _1342_/B sky130_fd_sc_hd__clkbuf_2
XFILLER_36_3 VGND VGND VPWR VPWR sky130_fd_sc_hd__decap_4
X_1234_ _1234_/A VGND VGND VPWR VPWR _1661_/D sky130_fd_sc_hd__clkbuf_1
X_1096_ _1107_/A _1096_/B VGND VGND VPWR VPWR _1097_/A sky130_fd_sc_hd__and2_1
X_1165_ _1165_/A VGND VGND VPWR VPWR _1642_/D sky130_fd_sc_hd__clkbuf_1
XFILLER_20_211 VGND VGND VPWR VPWR sky130_fd_sc_hd__fill_1
XFILLER_20_222 VGND VGND VPWR VPWR sky130_fd_sc_hd__decap_8
XFILLER_20_266 VGND VGND VPWR VPWR sky130_fd_sc_hd__decap_4
X_0949_ _0949_/A VGND VGND VPWR VPWR _0949_/X sky130_fd_sc_hd__clkbuf_1
XFILLER_47_108 VGND VGND VPWR VPWR sky130_fd_sc_hd__decap_4
XFILLER_18_11 VGND VGND VPWR VPWR sky130_fd_sc_hd__decap_4
XFILLER_18_44 VGND VGND VPWR VPWR sky130_fd_sc_hd__fill_2
XFILLER_34_43 VGND VGND VPWR VPWR sky130_fd_sc_hd__fill_1
XFILLER_34_32 VGND VGND VPWR VPWR sky130_fd_sc_hd__decap_4
XFILLER_34_21 VGND VGND VPWR VPWR sky130_fd_sc_hd__fill_2
XFILLER_34_10 VGND VGND VPWR VPWR sky130_fd_sc_hd__fill_1
XFILLER_18_99 VGND VGND VPWR VPWR sky130_fd_sc_hd__fill_1
XFILLER_34_65 VGND VGND VPWR VPWR sky130_fd_sc_hd__decap_4
XFILLER_11_211 VGND VGND VPWR VPWR sky130_fd_sc_hd__fill_1
XFILLER_46_141 VGND VGND VPWR VPWR sky130_fd_sc_hd__decap_8
X_0803_ _1395_/A VGND VGND VPWR VPWR _1411_/B sky130_fd_sc_hd__inv_2
XFILLER_29_108 VGND VGND VPWR VPWR sky130_fd_sc_hd__decap_4
X_1217_ _1217_/A VGND VGND VPWR VPWR _1656_/D sky130_fd_sc_hd__clkbuf_1
X_1079_ _1346_/A _1079_/B _1079_/C VGND VGND VPWR VPWR _1080_/A sky130_fd_sc_hd__and3_1
X_1148_ _1148_/A VGND VGND VPWR VPWR _1637_/D sky130_fd_sc_hd__clkbuf_1
XFILLER_20_56 VGND VGND VPWR VPWR sky130_fd_sc_hd__fill_2
XFILLER_29_98 VGND VGND VPWR VPWR sky130_fd_sc_hd__decap_6
XFILLER_28_174 VGND VGND VPWR VPWR sky130_fd_sc_hd__fill_2
XFILLER_28_130 VGND VGND VPWR VPWR sky130_fd_sc_hd__decap_8
XFILLER_45_97 VGND VGND VPWR VPWR sky130_fd_sc_hd__fill_1
XFILLER_45_53 VGND VGND VPWR VPWR sky130_fd_sc_hd__decap_3
XFILLER_43_155 VGND VGND VPWR VPWR sky130_fd_sc_hd__decap_4
XFILLER_43_133 VGND VGND VPWR VPWR sky130_fd_sc_hd__decap_4
XFILLER_43_111 VGND VGND VPWR VPWR sky130_fd_sc_hd__fill_1
XANTENNA_7 slave_adr_i[24] VGND VGND VPWR VPWR sky130_fd_sc_hd__diode_2
XFILLER_6_58 VGND VGND VPWR VPWR sky130_fd_sc_hd__fill_2
XTAP_339 VGND VPWR sky130_fd_sc_hd__tapvpwrvgnd_1
XTAP_328 VGND VPWR sky130_fd_sc_hd__tapvpwrvgnd_1
XTAP_317 VGND VPWR sky130_fd_sc_hd__tapvpwrvgnd_1
XTAP_306 VGND VPWR sky130_fd_sc_hd__tapvpwrvgnd_1
X_1002_ _1002_/A VGND VGND VPWR VPWR _1002_/X sky130_fd_sc_hd__clkbuf_1
X_1766_ _1766_/CLK _1766_/D VGND VGND VPWR VPWR _1766_/Q sky130_fd_sc_hd__dfxtp_1
X_1697_ _1730_/CLK _1697_/D VGND VGND VPWR VPWR _1697_/Q sky130_fd_sc_hd__dfxtp_1
XFILLER_25_199 VGND VGND VPWR VPWR sky130_fd_sc_hd__decap_4
XFILLER_31_99 VGND VGND VPWR VPWR sky130_fd_sc_hd__decap_4
XFILLER_31_55 VGND VGND VPWR VPWR sky130_fd_sc_hd__fill_1